# Generated with D-HyDAMO in delftd3fmpy v.1.1.2 on 2021-02-23 23:34:30.
# Tested and compatible with D-Flow FM 1.2.105.67228M, DIMRset 2.13.02.67836 and D-HYDRO suite 1D2D (Beta) 0.9.6.51435.
# 
[General]
fileVersion = 2.00
fileType = structure

[Structure]
	type = weir
	id = KST-O-17700
	branchid = OAF-O-00815
	chainage = 0.1
	allowedFlowDir = both
	crestLevel = -2.94
	crestWidth = 0.8
	corrCoeff = 1
	useVelocityHeight = true

[Structure]
	type = weir
	id = KST-O-17800
	branchid = OAF-O-00134
	chainage = 496.2873573800413
	allowedFlowDir = both
	crestLevel = -3.22
	crestWidth = 0.85
	corrCoeff = 1
	useVelocityHeight = true

[Structure]
	type = weir
	id = KST-O-17680
	branchid = OAF-O-00078
	chainage = 0.1
	allowedFlowDir = both
	crestLevel = -2.24
	crestWidth = 2.3
	corrCoeff = 1
	useVelocityHeight = true

[Structure]
	type = weir
	id = KST-O-17685
	branchid = OAF-O-01042
	chainage = 142.16068449959485
	allowedFlowDir = both
	crestLevel = -1.33
	crestWidth = 2.0
	corrCoeff = 1
	useVelocityHeight = true

[Structure]
	type = weir
	id = KST-O-17690
	branchid = OAF-O-00214
	chainage = 4.10119030750199
	allowedFlowDir = both
	crestLevel = -2.47
	crestWidth = 0.7
	corrCoeff = 1
	useVelocityHeight = true

[Structure]
	type = weir
	id = KST-O-17750
	branchid = OAF-O-00111
	chainage = 1152.554443656836
	allowedFlowDir = both
	crestLevel = -4.49
	crestWidth = 5.0
	corrCoeff = 1
	useVelocityHeight = true

[Structure]
	type = weir
	id = KST-O-17755
	branchid = OAF-O-00113
	chainage = 50.401584133569465
	allowedFlowDir = both
	crestLevel = -1.46
	crestWidth = 0.2
	corrCoeff = 1
	useVelocityHeight = true

[Structure]
	type = weir
	id = KST-O-17760
	branchid = OAF-O-01030
	chainage = 187.5209418103591
	allowedFlowDir = both
	crestLevel = -2.74
	crestWidth = 0.7
	corrCoeff = 1
	useVelocityHeight = true

[Structure]
	type = weir
	id = KST-O-17710
	branchid = OAF-O-01043
	chainage = 0.1
	allowedFlowDir = both
	crestLevel = -3.11
	crestWidth = 0.9
	corrCoeff = 1
	useVelocityHeight = true

[Structure]
	type = weir
	id = KST-O-17730
	branchid = OAF-O-00102
	chainage = 271.17219305822357
	allowedFlowDir = both
	crestLevel = -1.93
	crestWidth = 0.75
	corrCoeff = 1
	useVelocityHeight = true

[Structure]
	type = weir
	id = KST-O-17740
	branchid = OAF-O-00104
	chainage = 478.86980221969037
	allowedFlowDir = both
	crestLevel = -2.13
	crestWidth = 0.65
	corrCoeff = 1
	useVelocityHeight = true

[Structure]
	type = weir
	id = KST-O-17660
	branchid = OAF-O-01041
	chainage = 0.1
	allowedFlowDir = both
	crestLevel = -2.03
	crestWidth = 1.3
	corrCoeff = 1
	useVelocityHeight = true

[Structure]
	type = weir
	id = KST-O-17670
	branchid = OAF-O-00899
	chainage = 118.48028540013362
	allowedFlowDir = both
	crestLevel = -0.45
	crestWidth = 0.75
	corrCoeff = 1
	useVelocityHeight = true

[Structure]
	type = weir
	id = KST-O-17770
	branchid = OAF-O-00124
	chainage = 0.1
	allowedFlowDir = both
	crestLevel = -2.76
	crestWidth = 0.75
	corrCoeff = 1
	useVelocityHeight = true

[Structure]
	type = weir
	id = KST-O-17780
	branchid = OAF-O-00127
	chainage = 604.277036312608
	allowedFlowDir = both
	crestLevel = -3.94
	crestWidth = 3.0
	corrCoeff = 1
	useVelocityHeight = true

[Structure]
	type = weir
	id = KST-O-17820
	branchid = OAF-O-00152
	chainage = 1006.2993258024292
	allowedFlowDir = both
	crestLevel = nan
	crestWidth = 1.0
	corrCoeff = 1
	useVelocityHeight = true

[Structure]
	type = weir
	id = KST-O-17650
	branchid = OAF-O-00056
	chainage = 0.1
	allowedFlowDir = both
	crestLevel = -1.4
	crestWidth = 0.9
	corrCoeff = 1
	useVelocityHeight = true

[Structure]
	type = weir
	id = KST-O-17790
	branchid = OAF-O-00954
	chainage = 37.32859869139726
	allowedFlowDir = both
	crestLevel = -3.47
	crestWidth = 1.8
	corrCoeff = 1
	useVelocityHeight = true

[Structure]
	type = weir
	id = KST-O-17810
	branchid = OAF-O-00149
	chainage = 595.6490130018188
	allowedFlowDir = both
	crestLevel = -2.81
	crestWidth = 0.7
	corrCoeff = 1
	useVelocityHeight = true

[Structure]
	type = pump
	id = PMP_KGM-O-11860
	branchid = OAF-O-02415
	chainage = 0.1
	orientation = positive
	numstages = 1
	controlSide = suctionSide
	capacity = 0.21666666666666667
	startlevelSuctionSide = -998.95
	stoplevelSuctionSide = -999.05

[Structure]
	type = pump
	id = PMP_KGM-O-11730
	branchid = OAF-O-02479
	chainage = 11.924142381102369
	orientation = positive
	numstages = 1
	controlSide = suctionSide
	capacity = 5.333333333333333
	startlevelSuctionSide = -998.95
	stoplevelSuctionSide = -999.05

