# Generated with D-HyDAMO in delftd3fmpy v.1.1.2 on 2021-06-18 13:18:57.
# Tested and compatible with D-Flow FM 1.2.105.67228M, DIMRset 2.13.02.67836 and D-HYDRO suite 1D2D (Beta) 0.9.6.51435.
# 
[General]
fileVersion = 3.00
fileType = roughness

[Global]
	frictionId = Manning_0.03
	frictionType = Manning
	frictionValue = 0.03

