# Generated with D-HyDAMO in delftd3fmpy v.1.1.3 on 2021-07-15 16:33:53.
# Tested and compatible with D-Flow FM 1.2.105.67228M, DIMRset 2.13.02.67836 and D-HYDRO suite 1D2D (Beta) 0.9.6.51435.
# 
[General]
fileVersion = 1.01
fileType = boundConds

[Forcing]
name       = KST-O-17700
function   = timeseries
timeInterpolation = linear
quantity   = time
unit       = minutes since 2010-01-01 00:00:00
quantity   = weir_crestLevel
unit       = m+NAP
    0.000000    -2.500000 
40320.000000    -2.500000 
80640.000000    -2.500000 
120960.000000    -2.000000 
161280.000000    -2.000000 
201600.000000    -2.000000 
241920.000000    -2.000000 
282240.000000    -2.000000 
322560.000000    -2.000000 
362880.000000    -2.000000 
403200.000000    -2.500000 
443520.000000    -2.500000 
483840.000000    -2.500000 
524160.000000    -2.500000 
564480.000000    -2.500000 
604800.000000    -2.500000 
645120.000000    -2.000000 
685440.000000    -2.000000 
725760.000000    -2.000000 
766080.000000    -2.000000 
806400.000000    -2.000000 
846720.000000    -2.000000 
887040.000000    -2.000000 
927360.000000    -2.500000 
967680.000000    -2.500000 
1008000.000000    -2.500000 
1048320.000000    -2.500000 
1088640.000000    -2.500000 
1128960.000000    -2.500000 
1169280.000000    -2.000000 
1209600.000000    -2.000000 
1249920.000000    -2.000000 
1290240.000000    -2.000000 
1330560.000000    -2.000000 
1370880.000000    -2.000000 
1411200.000000    -2.000000 
1451520.000000    -2.500000 
1491840.000000    -2.500000 
1532160.000000    -2.500000 
1572480.000000    -2.500000 
1612800.000000    -2.500000 
1653120.000000    -2.500000 
1693440.000000    -2.000000 
1733760.000000    -2.000000 
1774080.000000    -2.000000 
1814400.000000    -2.000000 
1854720.000000    -2.000000 
1895040.000000    -2.000000 
1935360.000000    -2.000000 
1975680.000000    -2.500000 
2016000.000000    -2.500000 
2056320.000000    -2.500000 
2096640.000000    -2.500000 
2136960.000000    -2.500000 
2177280.000000    -2.500000 
2217600.000000    -2.000000 
2257920.000000    -2.000000 
2298240.000000    -2.000000 
2338560.000000    -2.000000 
2378880.000000    -2.000000 
2419200.000000    -2.000000 
2459520.000000    -2.000000 
2499840.000000    -2.500000 
2540160.000000    -2.500000 
2580480.000000    -2.500000 
2620800.000000    -2.500000 
2661120.000000    -2.500000 
2701440.000000    -2.500000 
2741760.000000    -2.000000 
2782080.000000    -2.000000 
2822400.000000    -2.000000 
2862720.000000    -2.000000 
2903040.000000    -2.000000 
2943360.000000    -2.000000 
2983680.000000    -2.000000 
3024000.000000    -2.500000 
3064320.000000    -2.500000 
3104640.000000    -2.500000 
3144960.000000    -2.500000 
3185280.000000    -2.500000 
3225600.000000    -2.500000 
3265920.000000    -2.000000 
3306240.000000    -2.000000 
3346560.000000    -2.000000 
3386880.000000    -2.000000 
3427200.000000    -2.000000 
3467520.000000    -2.000000 
3507840.000000    -2.000000 
3548160.000000    -2.500000 
3588480.000000    -2.500000 
3628800.000000    -2.500000 
3669120.000000    -2.500000 
3709440.000000    -2.500000 
3749760.000000    -2.500000 
3790080.000000    -2.000000 
3830400.000000    -2.000000 
3870720.000000    -2.000000 
3911040.000000    -2.000000 
3951360.000000    -2.000000 
3991680.000000    -2.000000 
4032000.000000    -2.000000 
4072320.000000    -2.500000 
4112640.000000    -2.500000 
4152960.000000    -2.500000 
4193280.000000    -2.500000 
4233600.000000    -2.500000 
4273920.000000    -2.500000 
4314240.000000    -2.000000 
4354560.000000    -2.000000 
4394880.000000    -2.000000 
4435200.000000    -2.000000 
4475520.000000    -2.000000 
4515840.000000    -2.000000 
4556160.000000    -2.000000 
4596480.000000    -2.500000 
4636800.000000    -2.500000 
4677120.000000    -2.500000 
4717440.000000    -2.500000 
4757760.000000    -2.500000 
4798080.000000    -2.500000 
4838400.000000    -2.500000 
4878720.000000    -2.000000 
4919040.000000    -2.000000 
4959360.000000    -2.000000 
4999680.000000    -2.000000 
5040000.000000    -2.000000 
5080320.000000    -2.000000 
5120640.000000    -2.500000 
5160960.000000    -2.500000 
5201280.000000    -2.500000 
5241600.000000    -2.500000 
5281920.000000    -2.500000 
5322240.000000    -2.500000 
5362560.000000    -2.500000 
5402880.000000    -2.000000 
5443200.000000    -2.000000 
5483520.000000    -2.000000 
5523840.000000    -2.000000 
5564160.000000    -2.000000 
5604480.000000    -2.000000 
5644800.000000    -2.500000 
5685120.000000    -2.500000 
5725440.000000    -2.500000 
5765760.000000    -2.500000 
5806080.000000    -2.500000 
5846400.000000    -2.500000 
5886720.000000    -2.500000 
5927040.000000    -2.000000 
5967360.000000    -2.000000 
6007680.000000    -2.000000 
6048000.000000    -2.000000 
6088320.000000    -2.000000 
6128640.000000    -2.000000 
6168960.000000    -2.500000 
6209280.000000    -2.500000 
6249600.000000    -2.500000 
6289920.000000    -2.500000 
6330240.000000    -2.500000 
6370560.000000    -2.500000 
6410880.000000    -2.500000 
6451200.000000    -2.000000 
6491520.000000    -2.000000 
6531840.000000    -2.000000 
6572160.000000    -2.000000 
6612480.000000    -2.000000 
6652800.000000    -2.000000 
6693120.000000    -2.500000 
6733440.000000    -2.500000 
6773760.000000    -2.500000 
6814080.000000    -2.500000 
6854400.000000    -2.500000 
6894720.000000    -2.500000 
6935040.000000    -2.500000 
6975360.000000    -2.000000 
7015680.000000    -2.000000 
7056000.000000    -2.000000 
7096320.000000    -2.000000 
7136640.000000    -2.000000 
7176960.000000    -2.000000 
7217280.000000    -2.500000 
7257600.000000    -2.500000 
7297920.000000    -2.500000 
7338240.000000    -2.500000 
7378560.000000    -2.500000 
7418880.000000    -2.500000 
7459200.000000    -2.500000 
7499520.000000    -2.000000 
7539840.000000    -2.000000 
7580160.000000    -2.000000 
7620480.000000    -2.000000 
7660800.000000    -2.000000 
7701120.000000    -2.000000 
7741440.000000    -2.500000 
7781760.000000    -2.500000 
7822080.000000    -2.500000 
7862400.000000    -2.500000 
7902720.000000    -2.500000 
7943040.000000    -2.500000 
7983360.000000    -2.500000 
8023680.000000    -2.000000 
8064000.000000    -2.000000 
8104320.000000    -2.000000 
8144640.000000    -2.000000 
8184960.000000    -2.000000 
8225280.000000    -2.000000 
8265600.000000    -2.500000 
8305920.000000    -2.500000 
8346240.000000    -2.500000 
8386560.000000    -2.500000 
8426880.000000    -2.500000 
8467200.000000    -2.500000 
8507520.000000    -2.500000 
8547840.000000    -2.000000 
8588160.000000    -2.000000 
8628480.000000    -2.000000 
8668800.000000    -2.000000 
8709120.000000    -2.000000 
8749440.000000    -2.000000 
8789760.000000    -2.500000 
8830080.000000    -2.500000 
8870400.000000    -2.500000 
8910720.000000    -2.500000 
8951040.000000    -2.500000 
8991360.000000    -2.500000 
9031680.000000    -2.500000 
9072000.000000    -2.000000 
9112320.000000    -2.000000 
9152640.000000    -2.000000 
9192960.000000    -2.000000 
9233280.000000    -2.000000 
9273600.000000    -2.000000 
9313920.000000    -2.500000 
9354240.000000    -2.500000 
9394560.000000    -2.500000 
9434880.000000    -2.500000 
9475200.000000    -2.500000 
9515520.000000    -2.500000 
9555840.000000    -2.500000 
9596160.000000    -2.000000 
9636480.000000    -2.000000 
9676800.000000    -2.000000 
9717120.000000    -2.000000 
9757440.000000    -2.000000 
9797760.000000    -2.000000 
9838080.000000    -2.500000 
9878400.000000    -2.500000 
9918720.000000    -2.500000 
9959040.000000    -2.500000 
9999360.000000    -2.500000 
10039680.000000    -2.500000 
10080000.000000    -2.500000 
10120320.000000    -2.000000 
10160640.000000    -2.000000 
10200960.000000    -2.000000 
10241280.000000    -2.000000 
10281600.000000    -2.000000 
10321920.000000    -2.000000 
10362240.000000    -2.000000 
10402560.000000    -2.500000 
10442880.000000    -2.500000 
10483200.000000    -2.500000 
10523520.000000    -2.500000 
10563840.000000    -2.500000 

[Forcing]
name       = KST-O-17800
function   = timeseries
timeInterpolation = linear
quantity   = time
unit       = minutes since 2010-01-01 00:00:00
quantity   = weir_crestLevel
unit       = m+NAP
    0.000000    -2.850000 
40320.000000    -2.850000 
80640.000000    -2.850000 
120960.000000    -2.550000 
161280.000000    -2.550000 
201600.000000    -2.550000 
241920.000000    -2.550000 
282240.000000    -2.550000 
322560.000000    -2.550000 
362880.000000    -2.550000 
403200.000000    -2.850000 
443520.000000    -2.850000 
483840.000000    -2.850000 
524160.000000    -2.850000 
564480.000000    -2.850000 
604800.000000    -2.850000 
645120.000000    -2.550000 
685440.000000    -2.550000 
725760.000000    -2.550000 
766080.000000    -2.550000 
806400.000000    -2.550000 
846720.000000    -2.550000 
887040.000000    -2.550000 
927360.000000    -2.850000 
967680.000000    -2.850000 
1008000.000000    -2.850000 
1048320.000000    -2.850000 
1088640.000000    -2.850000 
1128960.000000    -2.850000 
1169280.000000    -2.550000 
1209600.000000    -2.550000 
1249920.000000    -2.550000 
1290240.000000    -2.550000 
1330560.000000    -2.550000 
1370880.000000    -2.550000 
1411200.000000    -2.550000 
1451520.000000    -2.850000 
1491840.000000    -2.850000 
1532160.000000    -2.850000 
1572480.000000    -2.850000 
1612800.000000    -2.850000 
1653120.000000    -2.850000 
1693440.000000    -2.550000 
1733760.000000    -2.550000 
1774080.000000    -2.550000 
1814400.000000    -2.550000 
1854720.000000    -2.550000 
1895040.000000    -2.550000 
1935360.000000    -2.550000 
1975680.000000    -2.850000 
2016000.000000    -2.850000 
2056320.000000    -2.850000 
2096640.000000    -2.850000 
2136960.000000    -2.850000 
2177280.000000    -2.850000 
2217600.000000    -2.550000 
2257920.000000    -2.550000 
2298240.000000    -2.550000 
2338560.000000    -2.550000 
2378880.000000    -2.550000 
2419200.000000    -2.550000 
2459520.000000    -2.550000 
2499840.000000    -2.850000 
2540160.000000    -2.850000 
2580480.000000    -2.850000 
2620800.000000    -2.850000 
2661120.000000    -2.850000 
2701440.000000    -2.850000 
2741760.000000    -2.550000 
2782080.000000    -2.550000 
2822400.000000    -2.550000 
2862720.000000    -2.550000 
2903040.000000    -2.550000 
2943360.000000    -2.550000 
2983680.000000    -2.550000 
3024000.000000    -2.850000 
3064320.000000    -2.850000 
3104640.000000    -2.850000 
3144960.000000    -2.850000 
3185280.000000    -2.850000 
3225600.000000    -2.850000 
3265920.000000    -2.550000 
3306240.000000    -2.550000 
3346560.000000    -2.550000 
3386880.000000    -2.550000 
3427200.000000    -2.550000 
3467520.000000    -2.550000 
3507840.000000    -2.550000 
3548160.000000    -2.850000 
3588480.000000    -2.850000 
3628800.000000    -2.850000 
3669120.000000    -2.850000 
3709440.000000    -2.850000 
3749760.000000    -2.850000 
3790080.000000    -2.550000 
3830400.000000    -2.550000 
3870720.000000    -2.550000 
3911040.000000    -2.550000 
3951360.000000    -2.550000 
3991680.000000    -2.550000 
4032000.000000    -2.550000 
4072320.000000    -2.850000 
4112640.000000    -2.850000 
4152960.000000    -2.850000 
4193280.000000    -2.850000 
4233600.000000    -2.850000 
4273920.000000    -2.850000 
4314240.000000    -2.550000 
4354560.000000    -2.550000 
4394880.000000    -2.550000 
4435200.000000    -2.550000 
4475520.000000    -2.550000 
4515840.000000    -2.550000 
4556160.000000    -2.550000 
4596480.000000    -2.850000 
4636800.000000    -2.850000 
4677120.000000    -2.850000 
4717440.000000    -2.850000 
4757760.000000    -2.850000 
4798080.000000    -2.850000 
4838400.000000    -2.850000 
4878720.000000    -2.550000 
4919040.000000    -2.550000 
4959360.000000    -2.550000 
4999680.000000    -2.550000 
5040000.000000    -2.550000 
5080320.000000    -2.550000 
5120640.000000    -2.850000 
5160960.000000    -2.850000 
5201280.000000    -2.850000 
5241600.000000    -2.850000 
5281920.000000    -2.850000 
5322240.000000    -2.850000 
5362560.000000    -2.850000 
5402880.000000    -2.550000 
5443200.000000    -2.550000 
5483520.000000    -2.550000 
5523840.000000    -2.550000 
5564160.000000    -2.550000 
5604480.000000    -2.550000 
5644800.000000    -2.850000 
5685120.000000    -2.850000 
5725440.000000    -2.850000 
5765760.000000    -2.850000 
5806080.000000    -2.850000 
5846400.000000    -2.850000 
5886720.000000    -2.850000 
5927040.000000    -2.550000 
5967360.000000    -2.550000 
6007680.000000    -2.550000 
6048000.000000    -2.550000 
6088320.000000    -2.550000 
6128640.000000    -2.550000 
6168960.000000    -2.850000 
6209280.000000    -2.850000 
6249600.000000    -2.850000 
6289920.000000    -2.850000 
6330240.000000    -2.850000 
6370560.000000    -2.850000 
6410880.000000    -2.850000 
6451200.000000    -2.550000 
6491520.000000    -2.550000 
6531840.000000    -2.550000 
6572160.000000    -2.550000 
6612480.000000    -2.550000 
6652800.000000    -2.550000 
6693120.000000    -2.850000 
6733440.000000    -2.850000 
6773760.000000    -2.850000 
6814080.000000    -2.850000 
6854400.000000    -2.850000 
6894720.000000    -2.850000 
6935040.000000    -2.850000 
6975360.000000    -2.550000 
7015680.000000    -2.550000 
7056000.000000    -2.550000 
7096320.000000    -2.550000 
7136640.000000    -2.550000 
7176960.000000    -2.550000 
7217280.000000    -2.850000 
7257600.000000    -2.850000 
7297920.000000    -2.850000 
7338240.000000    -2.850000 
7378560.000000    -2.850000 
7418880.000000    -2.850000 
7459200.000000    -2.850000 
7499520.000000    -2.550000 
7539840.000000    -2.550000 
7580160.000000    -2.550000 
7620480.000000    -2.550000 
7660800.000000    -2.550000 
7701120.000000    -2.550000 
7741440.000000    -2.850000 
7781760.000000    -2.850000 
7822080.000000    -2.850000 
7862400.000000    -2.850000 
7902720.000000    -2.850000 
7943040.000000    -2.850000 
7983360.000000    -2.850000 
8023680.000000    -2.550000 
8064000.000000    -2.550000 
8104320.000000    -2.550000 
8144640.000000    -2.550000 
8184960.000000    -2.550000 
8225280.000000    -2.550000 
8265600.000000    -2.850000 
8305920.000000    -2.850000 
8346240.000000    -2.850000 
8386560.000000    -2.850000 
8426880.000000    -2.850000 
8467200.000000    -2.850000 
8507520.000000    -2.850000 
8547840.000000    -2.550000 
8588160.000000    -2.550000 
8628480.000000    -2.550000 
8668800.000000    -2.550000 
8709120.000000    -2.550000 
8749440.000000    -2.550000 
8789760.000000    -2.850000 
8830080.000000    -2.850000 
8870400.000000    -2.850000 
8910720.000000    -2.850000 
8951040.000000    -2.850000 
8991360.000000    -2.850000 
9031680.000000    -2.850000 
9072000.000000    -2.550000 
9112320.000000    -2.550000 
9152640.000000    -2.550000 
9192960.000000    -2.550000 
9233280.000000    -2.550000 
9273600.000000    -2.550000 
9313920.000000    -2.850000 
9354240.000000    -2.850000 
9394560.000000    -2.850000 
9434880.000000    -2.850000 
9475200.000000    -2.850000 
9515520.000000    -2.850000 
9555840.000000    -2.850000 
9596160.000000    -2.550000 
9636480.000000    -2.550000 
9676800.000000    -2.550000 
9717120.000000    -2.550000 
9757440.000000    -2.550000 
9797760.000000    -2.550000 
9838080.000000    -2.850000 
9878400.000000    -2.850000 
9918720.000000    -2.850000 
9959040.000000    -2.850000 
9999360.000000    -2.850000 
10039680.000000    -2.850000 
10080000.000000    -2.850000 
10120320.000000    -2.550000 
10160640.000000    -2.550000 
10200960.000000    -2.550000 
10241280.000000    -2.550000 
10281600.000000    -2.550000 
10321920.000000    -2.550000 
10362240.000000    -2.550000 
10402560.000000    -2.850000 
10442880.000000    -2.850000 
10483200.000000    -2.850000 
10523520.000000    -2.850000 
10563840.000000    -2.850000 

[Forcing]
name       = KST-O-17680
function   = timeseries
timeInterpolation = linear
quantity   = time
unit       = minutes since 2010-01-01 00:00:00
quantity   = weir_crestLevel
unit       = m+NAP
    0.000000    -1.750000 
40320.000000    -1.750000 
80640.000000    -1.750000 
120960.000000    -1.250000 
161280.000000    -1.250000 
201600.000000    -1.250000 
241920.000000    -1.250000 
282240.000000    -1.250000 
322560.000000    -1.250000 
362880.000000    -1.250000 
403200.000000    -1.750000 
443520.000000    -1.750000 
483840.000000    -1.750000 
524160.000000    -1.750000 
564480.000000    -1.750000 
604800.000000    -1.750000 
645120.000000    -1.250000 
685440.000000    -1.250000 
725760.000000    -1.250000 
766080.000000    -1.250000 
806400.000000    -1.250000 
846720.000000    -1.250000 
887040.000000    -1.250000 
927360.000000    -1.750000 
967680.000000    -1.750000 
1008000.000000    -1.750000 
1048320.000000    -1.750000 
1088640.000000    -1.750000 
1128960.000000    -1.750000 
1169280.000000    -1.250000 
1209600.000000    -1.250000 
1249920.000000    -1.250000 
1290240.000000    -1.250000 
1330560.000000    -1.250000 
1370880.000000    -1.250000 
1411200.000000    -1.250000 
1451520.000000    -1.750000 
1491840.000000    -1.750000 
1532160.000000    -1.750000 
1572480.000000    -1.750000 
1612800.000000    -1.750000 
1653120.000000    -1.750000 
1693440.000000    -1.250000 
1733760.000000    -1.250000 
1774080.000000    -1.250000 
1814400.000000    -1.250000 
1854720.000000    -1.250000 
1895040.000000    -1.250000 
1935360.000000    -1.250000 
1975680.000000    -1.750000 
2016000.000000    -1.750000 
2056320.000000    -1.750000 
2096640.000000    -1.750000 
2136960.000000    -1.750000 
2177280.000000    -1.750000 
2217600.000000    -1.250000 
2257920.000000    -1.250000 
2298240.000000    -1.250000 
2338560.000000    -1.250000 
2378880.000000    -1.250000 
2419200.000000    -1.250000 
2459520.000000    -1.250000 
2499840.000000    -1.750000 
2540160.000000    -1.750000 
2580480.000000    -1.750000 
2620800.000000    -1.750000 
2661120.000000    -1.750000 
2701440.000000    -1.750000 
2741760.000000    -1.250000 
2782080.000000    -1.250000 
2822400.000000    -1.250000 
2862720.000000    -1.250000 
2903040.000000    -1.250000 
2943360.000000    -1.250000 
2983680.000000    -1.250000 
3024000.000000    -1.750000 
3064320.000000    -1.750000 
3104640.000000    -1.750000 
3144960.000000    -1.750000 
3185280.000000    -1.750000 
3225600.000000    -1.750000 
3265920.000000    -1.250000 
3306240.000000    -1.250000 
3346560.000000    -1.250000 
3386880.000000    -1.250000 
3427200.000000    -1.250000 
3467520.000000    -1.250000 
3507840.000000    -1.250000 
3548160.000000    -1.750000 
3588480.000000    -1.750000 
3628800.000000    -1.750000 
3669120.000000    -1.750000 
3709440.000000    -1.750000 
3749760.000000    -1.750000 
3790080.000000    -1.250000 
3830400.000000    -1.250000 
3870720.000000    -1.250000 
3911040.000000    -1.250000 
3951360.000000    -1.250000 
3991680.000000    -1.250000 
4032000.000000    -1.250000 
4072320.000000    -1.750000 
4112640.000000    -1.750000 
4152960.000000    -1.750000 
4193280.000000    -1.750000 
4233600.000000    -1.750000 
4273920.000000    -1.750000 
4314240.000000    -1.250000 
4354560.000000    -1.250000 
4394880.000000    -1.250000 
4435200.000000    -1.250000 
4475520.000000    -1.250000 
4515840.000000    -1.250000 
4556160.000000    -1.250000 
4596480.000000    -1.750000 
4636800.000000    -1.750000 
4677120.000000    -1.750000 
4717440.000000    -1.750000 
4757760.000000    -1.750000 
4798080.000000    -1.750000 
4838400.000000    -1.750000 
4878720.000000    -1.250000 
4919040.000000    -1.250000 
4959360.000000    -1.250000 
4999680.000000    -1.250000 
5040000.000000    -1.250000 
5080320.000000    -1.250000 
5120640.000000    -1.750000 
5160960.000000    -1.750000 
5201280.000000    -1.750000 
5241600.000000    -1.750000 
5281920.000000    -1.750000 
5322240.000000    -1.750000 
5362560.000000    -1.750000 
5402880.000000    -1.250000 
5443200.000000    -1.250000 
5483520.000000    -1.250000 
5523840.000000    -1.250000 
5564160.000000    -1.250000 
5604480.000000    -1.250000 
5644800.000000    -1.750000 
5685120.000000    -1.750000 
5725440.000000    -1.750000 
5765760.000000    -1.750000 
5806080.000000    -1.750000 
5846400.000000    -1.750000 
5886720.000000    -1.750000 
5927040.000000    -1.250000 
5967360.000000    -1.250000 
6007680.000000    -1.250000 
6048000.000000    -1.250000 
6088320.000000    -1.250000 
6128640.000000    -1.250000 
6168960.000000    -1.750000 
6209280.000000    -1.750000 
6249600.000000    -1.750000 
6289920.000000    -1.750000 
6330240.000000    -1.750000 
6370560.000000    -1.750000 
6410880.000000    -1.750000 
6451200.000000    -1.250000 
6491520.000000    -1.250000 
6531840.000000    -1.250000 
6572160.000000    -1.250000 
6612480.000000    -1.250000 
6652800.000000    -1.250000 
6693120.000000    -1.750000 
6733440.000000    -1.750000 
6773760.000000    -1.750000 
6814080.000000    -1.750000 
6854400.000000    -1.750000 
6894720.000000    -1.750000 
6935040.000000    -1.750000 
6975360.000000    -1.250000 
7015680.000000    -1.250000 
7056000.000000    -1.250000 
7096320.000000    -1.250000 
7136640.000000    -1.250000 
7176960.000000    -1.250000 
7217280.000000    -1.750000 
7257600.000000    -1.750000 
7297920.000000    -1.750000 
7338240.000000    -1.750000 
7378560.000000    -1.750000 
7418880.000000    -1.750000 
7459200.000000    -1.750000 
7499520.000000    -1.250000 
7539840.000000    -1.250000 
7580160.000000    -1.250000 
7620480.000000    -1.250000 
7660800.000000    -1.250000 
7701120.000000    -1.250000 
7741440.000000    -1.750000 
7781760.000000    -1.750000 
7822080.000000    -1.750000 
7862400.000000    -1.750000 
7902720.000000    -1.750000 
7943040.000000    -1.750000 
7983360.000000    -1.750000 
8023680.000000    -1.250000 
8064000.000000    -1.250000 
8104320.000000    -1.250000 
8144640.000000    -1.250000 
8184960.000000    -1.250000 
8225280.000000    -1.250000 
8265600.000000    -1.750000 
8305920.000000    -1.750000 
8346240.000000    -1.750000 
8386560.000000    -1.750000 
8426880.000000    -1.750000 
8467200.000000    -1.750000 
8507520.000000    -1.750000 
8547840.000000    -1.250000 
8588160.000000    -1.250000 
8628480.000000    -1.250000 
8668800.000000    -1.250000 
8709120.000000    -1.250000 
8749440.000000    -1.250000 
8789760.000000    -1.750000 
8830080.000000    -1.750000 
8870400.000000    -1.750000 
8910720.000000    -1.750000 
8951040.000000    -1.750000 
8991360.000000    -1.750000 
9031680.000000    -1.750000 
9072000.000000    -1.250000 
9112320.000000    -1.250000 
9152640.000000    -1.250000 
9192960.000000    -1.250000 
9233280.000000    -1.250000 
9273600.000000    -1.250000 
9313920.000000    -1.750000 
9354240.000000    -1.750000 
9394560.000000    -1.750000 
9434880.000000    -1.750000 
9475200.000000    -1.750000 
9515520.000000    -1.750000 
9555840.000000    -1.750000 
9596160.000000    -1.250000 
9636480.000000    -1.250000 
9676800.000000    -1.250000 
9717120.000000    -1.250000 
9757440.000000    -1.250000 
9797760.000000    -1.250000 
9838080.000000    -1.750000 
9878400.000000    -1.750000 
9918720.000000    -1.750000 
9959040.000000    -1.750000 
9999360.000000    -1.750000 
10039680.000000    -1.750000 
10080000.000000    -1.750000 
10120320.000000    -1.250000 
10160640.000000    -1.250000 
10200960.000000    -1.250000 
10241280.000000    -1.250000 
10281600.000000    -1.250000 
10321920.000000    -1.250000 
10362240.000000    -1.250000 
10402560.000000    -1.750000 
10442880.000000    -1.750000 
10483200.000000    -1.750000 
10523520.000000    -1.750000 
10563840.000000    -1.750000 

[Forcing]
name       = KST-O-17690
function   = timeseries
timeInterpolation = linear
quantity   = time
unit       = minutes since 2010-01-01 00:00:00
quantity   = weir_crestLevel
unit       = m+NAP
    0.000000    -2.150000 
40320.000000    -2.150000 
80640.000000    -2.150000 
120960.000000    -1.600000 
161280.000000    -1.600000 
201600.000000    -1.600000 
241920.000000    -1.600000 
282240.000000    -1.600000 
322560.000000    -1.600000 
362880.000000    -1.600000 
403200.000000    -2.150000 
443520.000000    -2.150000 
483840.000000    -2.150000 
524160.000000    -2.150000 
564480.000000    -2.150000 
604800.000000    -2.150000 
645120.000000    -1.600000 
685440.000000    -1.600000 
725760.000000    -1.600000 
766080.000000    -1.600000 
806400.000000    -1.600000 
846720.000000    -1.600000 
887040.000000    -1.600000 
927360.000000    -2.150000 
967680.000000    -2.150000 
1008000.000000    -2.150000 
1048320.000000    -2.150000 
1088640.000000    -2.150000 
1128960.000000    -2.150000 
1169280.000000    -1.600000 
1209600.000000    -1.600000 
1249920.000000    -1.600000 
1290240.000000    -1.600000 
1330560.000000    -1.600000 
1370880.000000    -1.600000 
1411200.000000    -1.600000 
1451520.000000    -2.150000 
1491840.000000    -2.150000 
1532160.000000    -2.150000 
1572480.000000    -2.150000 
1612800.000000    -2.150000 
1653120.000000    -2.150000 
1693440.000000    -1.600000 
1733760.000000    -1.600000 
1774080.000000    -1.600000 
1814400.000000    -1.600000 
1854720.000000    -1.600000 
1895040.000000    -1.600000 
1935360.000000    -1.600000 
1975680.000000    -2.150000 
2016000.000000    -2.150000 
2056320.000000    -2.150000 
2096640.000000    -2.150000 
2136960.000000    -2.150000 
2177280.000000    -2.150000 
2217600.000000    -1.600000 
2257920.000000    -1.600000 
2298240.000000    -1.600000 
2338560.000000    -1.600000 
2378880.000000    -1.600000 
2419200.000000    -1.600000 
2459520.000000    -1.600000 
2499840.000000    -2.150000 
2540160.000000    -2.150000 
2580480.000000    -2.150000 
2620800.000000    -2.150000 
2661120.000000    -2.150000 
2701440.000000    -2.150000 
2741760.000000    -1.600000 
2782080.000000    -1.600000 
2822400.000000    -1.600000 
2862720.000000    -1.600000 
2903040.000000    -1.600000 
2943360.000000    -1.600000 
2983680.000000    -1.600000 
3024000.000000    -2.150000 
3064320.000000    -2.150000 
3104640.000000    -2.150000 
3144960.000000    -2.150000 
3185280.000000    -2.150000 
3225600.000000    -2.150000 
3265920.000000    -1.600000 
3306240.000000    -1.600000 
3346560.000000    -1.600000 
3386880.000000    -1.600000 
3427200.000000    -1.600000 
3467520.000000    -1.600000 
3507840.000000    -1.600000 
3548160.000000    -2.150000 
3588480.000000    -2.150000 
3628800.000000    -2.150000 
3669120.000000    -2.150000 
3709440.000000    -2.150000 
3749760.000000    -2.150000 
3790080.000000    -1.600000 
3830400.000000    -1.600000 
3870720.000000    -1.600000 
3911040.000000    -1.600000 
3951360.000000    -1.600000 
3991680.000000    -1.600000 
4032000.000000    -1.600000 
4072320.000000    -2.150000 
4112640.000000    -2.150000 
4152960.000000    -2.150000 
4193280.000000    -2.150000 
4233600.000000    -2.150000 
4273920.000000    -2.150000 
4314240.000000    -1.600000 
4354560.000000    -1.600000 
4394880.000000    -1.600000 
4435200.000000    -1.600000 
4475520.000000    -1.600000 
4515840.000000    -1.600000 
4556160.000000    -1.600000 
4596480.000000    -2.150000 
4636800.000000    -2.150000 
4677120.000000    -2.150000 
4717440.000000    -2.150000 
4757760.000000    -2.150000 
4798080.000000    -2.150000 
4838400.000000    -2.150000 
4878720.000000    -1.600000 
4919040.000000    -1.600000 
4959360.000000    -1.600000 
4999680.000000    -1.600000 
5040000.000000    -1.600000 
5080320.000000    -1.600000 
5120640.000000    -2.150000 
5160960.000000    -2.150000 
5201280.000000    -2.150000 
5241600.000000    -2.150000 
5281920.000000    -2.150000 
5322240.000000    -2.150000 
5362560.000000    -2.150000 
5402880.000000    -1.600000 
5443200.000000    -1.600000 
5483520.000000    -1.600000 
5523840.000000    -1.600000 
5564160.000000    -1.600000 
5604480.000000    -1.600000 
5644800.000000    -2.150000 
5685120.000000    -2.150000 
5725440.000000    -2.150000 
5765760.000000    -2.150000 
5806080.000000    -2.150000 
5846400.000000    -2.150000 
5886720.000000    -2.150000 
5927040.000000    -1.600000 
5967360.000000    -1.600000 
6007680.000000    -1.600000 
6048000.000000    -1.600000 
6088320.000000    -1.600000 
6128640.000000    -1.600000 
6168960.000000    -2.150000 
6209280.000000    -2.150000 
6249600.000000    -2.150000 
6289920.000000    -2.150000 
6330240.000000    -2.150000 
6370560.000000    -2.150000 
6410880.000000    -2.150000 
6451200.000000    -1.600000 
6491520.000000    -1.600000 
6531840.000000    -1.600000 
6572160.000000    -1.600000 
6612480.000000    -1.600000 
6652800.000000    -1.600000 
6693120.000000    -2.150000 
6733440.000000    -2.150000 
6773760.000000    -2.150000 
6814080.000000    -2.150000 
6854400.000000    -2.150000 
6894720.000000    -2.150000 
6935040.000000    -2.150000 
6975360.000000    -1.600000 
7015680.000000    -1.600000 
7056000.000000    -1.600000 
7096320.000000    -1.600000 
7136640.000000    -1.600000 
7176960.000000    -1.600000 
7217280.000000    -2.150000 
7257600.000000    -2.150000 
7297920.000000    -2.150000 
7338240.000000    -2.150000 
7378560.000000    -2.150000 
7418880.000000    -2.150000 
7459200.000000    -2.150000 
7499520.000000    -1.600000 
7539840.000000    -1.600000 
7580160.000000    -1.600000 
7620480.000000    -1.600000 
7660800.000000    -1.600000 
7701120.000000    -1.600000 
7741440.000000    -2.150000 
7781760.000000    -2.150000 
7822080.000000    -2.150000 
7862400.000000    -2.150000 
7902720.000000    -2.150000 
7943040.000000    -2.150000 
7983360.000000    -2.150000 
8023680.000000    -1.600000 
8064000.000000    -1.600000 
8104320.000000    -1.600000 
8144640.000000    -1.600000 
8184960.000000    -1.600000 
8225280.000000    -1.600000 
8265600.000000    -2.150000 
8305920.000000    -2.150000 
8346240.000000    -2.150000 
8386560.000000    -2.150000 
8426880.000000    -2.150000 
8467200.000000    -2.150000 
8507520.000000    -2.150000 
8547840.000000    -1.600000 
8588160.000000    -1.600000 
8628480.000000    -1.600000 
8668800.000000    -1.600000 
8709120.000000    -1.600000 
8749440.000000    -1.600000 
8789760.000000    -2.150000 
8830080.000000    -2.150000 
8870400.000000    -2.150000 
8910720.000000    -2.150000 
8951040.000000    -2.150000 
8991360.000000    -2.150000 
9031680.000000    -2.150000 
9072000.000000    -1.600000 
9112320.000000    -1.600000 
9152640.000000    -1.600000 
9192960.000000    -1.600000 
9233280.000000    -1.600000 
9273600.000000    -1.600000 
9313920.000000    -2.150000 
9354240.000000    -2.150000 
9394560.000000    -2.150000 
9434880.000000    -2.150000 
9475200.000000    -2.150000 
9515520.000000    -2.150000 
9555840.000000    -2.150000 
9596160.000000    -1.600000 
9636480.000000    -1.600000 
9676800.000000    -1.600000 
9717120.000000    -1.600000 
9757440.000000    -1.600000 
9797760.000000    -1.600000 
9838080.000000    -2.150000 
9878400.000000    -2.150000 
9918720.000000    -2.150000 
9959040.000000    -2.150000 
9999360.000000    -2.150000 
10039680.000000    -2.150000 
10080000.000000    -2.150000 
10120320.000000    -1.600000 
10160640.000000    -1.600000 
10200960.000000    -1.600000 
10241280.000000    -1.600000 
10281600.000000    -1.600000 
10321920.000000    -1.600000 
10362240.000000    -1.600000 
10402560.000000    -2.150000 
10442880.000000    -2.150000 
10483200.000000    -2.150000 
10523520.000000    -2.150000 
10563840.000000    -2.150000 

[Forcing]
name       = KST-O-17750
function   = timeseries
timeInterpolation = linear
quantity   = time
unit       = minutes since 2010-01-01 00:00:00
quantity   = weir_crestLevel
unit       = m+NAP
    0.000000    -3.450000 
40320.000000    -3.450000 
80640.000000    -3.450000 
120960.000000    -2.850000 
161280.000000    -2.850000 
201600.000000    -2.850000 
241920.000000    -2.850000 
282240.000000    -2.850000 
322560.000000    -2.850000 
362880.000000    -2.850000 
403200.000000    -3.450000 
443520.000000    -3.450000 
483840.000000    -3.450000 
524160.000000    -3.450000 
564480.000000    -3.450000 
604800.000000    -3.450000 
645120.000000    -2.850000 
685440.000000    -2.850000 
725760.000000    -2.850000 
766080.000000    -2.850000 
806400.000000    -2.850000 
846720.000000    -2.850000 
887040.000000    -2.850000 
927360.000000    -3.450000 
967680.000000    -3.450000 
1008000.000000    -3.450000 
1048320.000000    -3.450000 
1088640.000000    -3.450000 
1128960.000000    -3.450000 
1169280.000000    -2.850000 
1209600.000000    -2.850000 
1249920.000000    -2.850000 
1290240.000000    -2.850000 
1330560.000000    -2.850000 
1370880.000000    -2.850000 
1411200.000000    -2.850000 
1451520.000000    -3.450000 
1491840.000000    -3.450000 
1532160.000000    -3.450000 
1572480.000000    -3.450000 
1612800.000000    -3.450000 
1653120.000000    -3.450000 
1693440.000000    -2.850000 
1733760.000000    -2.850000 
1774080.000000    -2.850000 
1814400.000000    -2.850000 
1854720.000000    -2.850000 
1895040.000000    -2.850000 
1935360.000000    -2.850000 
1975680.000000    -3.450000 
2016000.000000    -3.450000 
2056320.000000    -3.450000 
2096640.000000    -3.450000 
2136960.000000    -3.450000 
2177280.000000    -3.450000 
2217600.000000    -2.850000 
2257920.000000    -2.850000 
2298240.000000    -2.850000 
2338560.000000    -2.850000 
2378880.000000    -2.850000 
2419200.000000    -2.850000 
2459520.000000    -2.850000 
2499840.000000    -3.450000 
2540160.000000    -3.450000 
2580480.000000    -3.450000 
2620800.000000    -3.450000 
2661120.000000    -3.450000 
2701440.000000    -3.450000 
2741760.000000    -2.850000 
2782080.000000    -2.850000 
2822400.000000    -2.850000 
2862720.000000    -2.850000 
2903040.000000    -2.850000 
2943360.000000    -2.850000 
2983680.000000    -2.850000 
3024000.000000    -3.450000 
3064320.000000    -3.450000 
3104640.000000    -3.450000 
3144960.000000    -3.450000 
3185280.000000    -3.450000 
3225600.000000    -3.450000 
3265920.000000    -2.850000 
3306240.000000    -2.850000 
3346560.000000    -2.850000 
3386880.000000    -2.850000 
3427200.000000    -2.850000 
3467520.000000    -2.850000 
3507840.000000    -2.850000 
3548160.000000    -3.450000 
3588480.000000    -3.450000 
3628800.000000    -3.450000 
3669120.000000    -3.450000 
3709440.000000    -3.450000 
3749760.000000    -3.450000 
3790080.000000    -2.850000 
3830400.000000    -2.850000 
3870720.000000    -2.850000 
3911040.000000    -2.850000 
3951360.000000    -2.850000 
3991680.000000    -2.850000 
4032000.000000    -2.850000 
4072320.000000    -3.450000 
4112640.000000    -3.450000 
4152960.000000    -3.450000 
4193280.000000    -3.450000 
4233600.000000    -3.450000 
4273920.000000    -3.450000 
4314240.000000    -2.850000 
4354560.000000    -2.850000 
4394880.000000    -2.850000 
4435200.000000    -2.850000 
4475520.000000    -2.850000 
4515840.000000    -2.850000 
4556160.000000    -2.850000 
4596480.000000    -3.450000 
4636800.000000    -3.450000 
4677120.000000    -3.450000 
4717440.000000    -3.450000 
4757760.000000    -3.450000 
4798080.000000    -3.450000 
4838400.000000    -3.450000 
4878720.000000    -2.850000 
4919040.000000    -2.850000 
4959360.000000    -2.850000 
4999680.000000    -2.850000 
5040000.000000    -2.850000 
5080320.000000    -2.850000 
5120640.000000    -3.450000 
5160960.000000    -3.450000 
5201280.000000    -3.450000 
5241600.000000    -3.450000 
5281920.000000    -3.450000 
5322240.000000    -3.450000 
5362560.000000    -3.450000 
5402880.000000    -2.850000 
5443200.000000    -2.850000 
5483520.000000    -2.850000 
5523840.000000    -2.850000 
5564160.000000    -2.850000 
5604480.000000    -2.850000 
5644800.000000    -3.450000 
5685120.000000    -3.450000 
5725440.000000    -3.450000 
5765760.000000    -3.450000 
5806080.000000    -3.450000 
5846400.000000    -3.450000 
5886720.000000    -3.450000 
5927040.000000    -2.850000 
5967360.000000    -2.850000 
6007680.000000    -2.850000 
6048000.000000    -2.850000 
6088320.000000    -2.850000 
6128640.000000    -2.850000 
6168960.000000    -3.450000 
6209280.000000    -3.450000 
6249600.000000    -3.450000 
6289920.000000    -3.450000 
6330240.000000    -3.450000 
6370560.000000    -3.450000 
6410880.000000    -3.450000 
6451200.000000    -2.850000 
6491520.000000    -2.850000 
6531840.000000    -2.850000 
6572160.000000    -2.850000 
6612480.000000    -2.850000 
6652800.000000    -2.850000 
6693120.000000    -3.450000 
6733440.000000    -3.450000 
6773760.000000    -3.450000 
6814080.000000    -3.450000 
6854400.000000    -3.450000 
6894720.000000    -3.450000 
6935040.000000    -3.450000 
6975360.000000    -2.850000 
7015680.000000    -2.850000 
7056000.000000    -2.850000 
7096320.000000    -2.850000 
7136640.000000    -2.850000 
7176960.000000    -2.850000 
7217280.000000    -3.450000 
7257600.000000    -3.450000 
7297920.000000    -3.450000 
7338240.000000    -3.450000 
7378560.000000    -3.450000 
7418880.000000    -3.450000 
7459200.000000    -3.450000 
7499520.000000    -2.850000 
7539840.000000    -2.850000 
7580160.000000    -2.850000 
7620480.000000    -2.850000 
7660800.000000    -2.850000 
7701120.000000    -2.850000 
7741440.000000    -3.450000 
7781760.000000    -3.450000 
7822080.000000    -3.450000 
7862400.000000    -3.450000 
7902720.000000    -3.450000 
7943040.000000    -3.450000 
7983360.000000    -3.450000 
8023680.000000    -2.850000 
8064000.000000    -2.850000 
8104320.000000    -2.850000 
8144640.000000    -2.850000 
8184960.000000    -2.850000 
8225280.000000    -2.850000 
8265600.000000    -3.450000 
8305920.000000    -3.450000 
8346240.000000    -3.450000 
8386560.000000    -3.450000 
8426880.000000    -3.450000 
8467200.000000    -3.450000 
8507520.000000    -3.450000 
8547840.000000    -2.850000 
8588160.000000    -2.850000 
8628480.000000    -2.850000 
8668800.000000    -2.850000 
8709120.000000    -2.850000 
8749440.000000    -2.850000 
8789760.000000    -3.450000 
8830080.000000    -3.450000 
8870400.000000    -3.450000 
8910720.000000    -3.450000 
8951040.000000    -3.450000 
8991360.000000    -3.450000 
9031680.000000    -3.450000 
9072000.000000    -2.850000 
9112320.000000    -2.850000 
9152640.000000    -2.850000 
9192960.000000    -2.850000 
9233280.000000    -2.850000 
9273600.000000    -2.850000 
9313920.000000    -3.450000 
9354240.000000    -3.450000 
9394560.000000    -3.450000 
9434880.000000    -3.450000 
9475200.000000    -3.450000 
9515520.000000    -3.450000 
9555840.000000    -3.450000 
9596160.000000    -2.850000 
9636480.000000    -2.850000 
9676800.000000    -2.850000 
9717120.000000    -2.850000 
9757440.000000    -2.850000 
9797760.000000    -2.850000 
9838080.000000    -3.450000 
9878400.000000    -3.450000 
9918720.000000    -3.450000 
9959040.000000    -3.450000 
9999360.000000    -3.450000 
10039680.000000    -3.450000 
10080000.000000    -3.450000 
10120320.000000    -2.850000 
10160640.000000    -2.850000 
10200960.000000    -2.850000 
10241280.000000    -2.850000 
10281600.000000    -2.850000 
10321920.000000    -2.850000 
10362240.000000    -2.850000 
10402560.000000    -3.450000 
10442880.000000    -3.450000 
10483200.000000    -3.450000 
10523520.000000    -3.450000 
10563840.000000    -3.450000 

[Forcing]
name       = KST-O-17760
function   = timeseries
timeInterpolation = linear
quantity   = time
unit       = minutes since 2010-01-01 00:00:00
quantity   = weir_crestLevel
unit       = m+NAP
    0.000000    -2.050000 
40320.000000    -2.050000 
80640.000000    -2.050000 
120960.000000    -1.700000 
161280.000000    -1.700000 
201600.000000    -1.700000 
241920.000000    -1.700000 
282240.000000    -1.700000 
322560.000000    -1.700000 
362880.000000    -1.700000 
403200.000000    -2.050000 
443520.000000    -2.050000 
483840.000000    -2.050000 
524160.000000    -2.050000 
564480.000000    -2.050000 
604800.000000    -2.050000 
645120.000000    -1.700000 
685440.000000    -1.700000 
725760.000000    -1.700000 
766080.000000    -1.700000 
806400.000000    -1.700000 
846720.000000    -1.700000 
887040.000000    -1.700000 
927360.000000    -2.050000 
967680.000000    -2.050000 
1008000.000000    -2.050000 
1048320.000000    -2.050000 
1088640.000000    -2.050000 
1128960.000000    -2.050000 
1169280.000000    -1.700000 
1209600.000000    -1.700000 
1249920.000000    -1.700000 
1290240.000000    -1.700000 
1330560.000000    -1.700000 
1370880.000000    -1.700000 
1411200.000000    -1.700000 
1451520.000000    -2.050000 
1491840.000000    -2.050000 
1532160.000000    -2.050000 
1572480.000000    -2.050000 
1612800.000000    -2.050000 
1653120.000000    -2.050000 
1693440.000000    -1.700000 
1733760.000000    -1.700000 
1774080.000000    -1.700000 
1814400.000000    -1.700000 
1854720.000000    -1.700000 
1895040.000000    -1.700000 
1935360.000000    -1.700000 
1975680.000000    -2.050000 
2016000.000000    -2.050000 
2056320.000000    -2.050000 
2096640.000000    -2.050000 
2136960.000000    -2.050000 
2177280.000000    -2.050000 
2217600.000000    -1.700000 
2257920.000000    -1.700000 
2298240.000000    -1.700000 
2338560.000000    -1.700000 
2378880.000000    -1.700000 
2419200.000000    -1.700000 
2459520.000000    -1.700000 
2499840.000000    -2.050000 
2540160.000000    -2.050000 
2580480.000000    -2.050000 
2620800.000000    -2.050000 
2661120.000000    -2.050000 
2701440.000000    -2.050000 
2741760.000000    -1.700000 
2782080.000000    -1.700000 
2822400.000000    -1.700000 
2862720.000000    -1.700000 
2903040.000000    -1.700000 
2943360.000000    -1.700000 
2983680.000000    -1.700000 
3024000.000000    -2.050000 
3064320.000000    -2.050000 
3104640.000000    -2.050000 
3144960.000000    -2.050000 
3185280.000000    -2.050000 
3225600.000000    -2.050000 
3265920.000000    -1.700000 
3306240.000000    -1.700000 
3346560.000000    -1.700000 
3386880.000000    -1.700000 
3427200.000000    -1.700000 
3467520.000000    -1.700000 
3507840.000000    -1.700000 
3548160.000000    -2.050000 
3588480.000000    -2.050000 
3628800.000000    -2.050000 
3669120.000000    -2.050000 
3709440.000000    -2.050000 
3749760.000000    -2.050000 
3790080.000000    -1.700000 
3830400.000000    -1.700000 
3870720.000000    -1.700000 
3911040.000000    -1.700000 
3951360.000000    -1.700000 
3991680.000000    -1.700000 
4032000.000000    -1.700000 
4072320.000000    -2.050000 
4112640.000000    -2.050000 
4152960.000000    -2.050000 
4193280.000000    -2.050000 
4233600.000000    -2.050000 
4273920.000000    -2.050000 
4314240.000000    -1.700000 
4354560.000000    -1.700000 
4394880.000000    -1.700000 
4435200.000000    -1.700000 
4475520.000000    -1.700000 
4515840.000000    -1.700000 
4556160.000000    -1.700000 
4596480.000000    -2.050000 
4636800.000000    -2.050000 
4677120.000000    -2.050000 
4717440.000000    -2.050000 
4757760.000000    -2.050000 
4798080.000000    -2.050000 
4838400.000000    -2.050000 
4878720.000000    -1.700000 
4919040.000000    -1.700000 
4959360.000000    -1.700000 
4999680.000000    -1.700000 
5040000.000000    -1.700000 
5080320.000000    -1.700000 
5120640.000000    -2.050000 
5160960.000000    -2.050000 
5201280.000000    -2.050000 
5241600.000000    -2.050000 
5281920.000000    -2.050000 
5322240.000000    -2.050000 
5362560.000000    -2.050000 
5402880.000000    -1.700000 
5443200.000000    -1.700000 
5483520.000000    -1.700000 
5523840.000000    -1.700000 
5564160.000000    -1.700000 
5604480.000000    -1.700000 
5644800.000000    -2.050000 
5685120.000000    -2.050000 
5725440.000000    -2.050000 
5765760.000000    -2.050000 
5806080.000000    -2.050000 
5846400.000000    -2.050000 
5886720.000000    -2.050000 
5927040.000000    -1.700000 
5967360.000000    -1.700000 
6007680.000000    -1.700000 
6048000.000000    -1.700000 
6088320.000000    -1.700000 
6128640.000000    -1.700000 
6168960.000000    -2.050000 
6209280.000000    -2.050000 
6249600.000000    -2.050000 
6289920.000000    -2.050000 
6330240.000000    -2.050000 
6370560.000000    -2.050000 
6410880.000000    -2.050000 
6451200.000000    -1.700000 
6491520.000000    -1.700000 
6531840.000000    -1.700000 
6572160.000000    -1.700000 
6612480.000000    -1.700000 
6652800.000000    -1.700000 
6693120.000000    -2.050000 
6733440.000000    -2.050000 
6773760.000000    -2.050000 
6814080.000000    -2.050000 
6854400.000000    -2.050000 
6894720.000000    -2.050000 
6935040.000000    -2.050000 
6975360.000000    -1.700000 
7015680.000000    -1.700000 
7056000.000000    -1.700000 
7096320.000000    -1.700000 
7136640.000000    -1.700000 
7176960.000000    -1.700000 
7217280.000000    -2.050000 
7257600.000000    -2.050000 
7297920.000000    -2.050000 
7338240.000000    -2.050000 
7378560.000000    -2.050000 
7418880.000000    -2.050000 
7459200.000000    -2.050000 
7499520.000000    -1.700000 
7539840.000000    -1.700000 
7580160.000000    -1.700000 
7620480.000000    -1.700000 
7660800.000000    -1.700000 
7701120.000000    -1.700000 
7741440.000000    -2.050000 
7781760.000000    -2.050000 
7822080.000000    -2.050000 
7862400.000000    -2.050000 
7902720.000000    -2.050000 
7943040.000000    -2.050000 
7983360.000000    -2.050000 
8023680.000000    -1.700000 
8064000.000000    -1.700000 
8104320.000000    -1.700000 
8144640.000000    -1.700000 
8184960.000000    -1.700000 
8225280.000000    -1.700000 
8265600.000000    -2.050000 
8305920.000000    -2.050000 
8346240.000000    -2.050000 
8386560.000000    -2.050000 
8426880.000000    -2.050000 
8467200.000000    -2.050000 
8507520.000000    -2.050000 
8547840.000000    -1.700000 
8588160.000000    -1.700000 
8628480.000000    -1.700000 
8668800.000000    -1.700000 
8709120.000000    -1.700000 
8749440.000000    -1.700000 
8789760.000000    -2.050000 
8830080.000000    -2.050000 
8870400.000000    -2.050000 
8910720.000000    -2.050000 
8951040.000000    -2.050000 
8991360.000000    -2.050000 
9031680.000000    -2.050000 
9072000.000000    -1.700000 
9112320.000000    -1.700000 
9152640.000000    -1.700000 
9192960.000000    -1.700000 
9233280.000000    -1.700000 
9273600.000000    -1.700000 
9313920.000000    -2.050000 
9354240.000000    -2.050000 
9394560.000000    -2.050000 
9434880.000000    -2.050000 
9475200.000000    -2.050000 
9515520.000000    -2.050000 
9555840.000000    -2.050000 
9596160.000000    -1.700000 
9636480.000000    -1.700000 
9676800.000000    -1.700000 
9717120.000000    -1.700000 
9757440.000000    -1.700000 
9797760.000000    -1.700000 
9838080.000000    -2.050000 
9878400.000000    -2.050000 
9918720.000000    -2.050000 
9959040.000000    -2.050000 
9999360.000000    -2.050000 
10039680.000000    -2.050000 
10080000.000000    -2.050000 
10120320.000000    -1.700000 
10160640.000000    -1.700000 
10200960.000000    -1.700000 
10241280.000000    -1.700000 
10281600.000000    -1.700000 
10321920.000000    -1.700000 
10362240.000000    -1.700000 
10402560.000000    -2.050000 
10442880.000000    -2.050000 
10483200.000000    -2.050000 
10523520.000000    -2.050000 
10563840.000000    -2.050000 

[Forcing]
name       = KST-O-17710
function   = timeseries
timeInterpolation = linear
quantity   = time
unit       = minutes since 2010-01-01 00:00:00
quantity   = weir_crestLevel
unit       = m+NAP
    0.000000    -2.700000 
40320.000000    -2.700000 
80640.000000    -2.700000 
120960.000000    -2.300000 
161280.000000    -2.300000 
201600.000000    -2.300000 
241920.000000    -2.300000 
282240.000000    -2.300000 
322560.000000    -2.300000 
362880.000000    -2.300000 
403200.000000    -2.700000 
443520.000000    -2.700000 
483840.000000    -2.700000 
524160.000000    -2.700000 
564480.000000    -2.700000 
604800.000000    -2.700000 
645120.000000    -2.300000 
685440.000000    -2.300000 
725760.000000    -2.300000 
766080.000000    -2.300000 
806400.000000    -2.300000 
846720.000000    -2.300000 
887040.000000    -2.300000 
927360.000000    -2.700000 
967680.000000    -2.700000 
1008000.000000    -2.700000 
1048320.000000    -2.700000 
1088640.000000    -2.700000 
1128960.000000    -2.700000 
1169280.000000    -2.300000 
1209600.000000    -2.300000 
1249920.000000    -2.300000 
1290240.000000    -2.300000 
1330560.000000    -2.300000 
1370880.000000    -2.300000 
1411200.000000    -2.300000 
1451520.000000    -2.700000 
1491840.000000    -2.700000 
1532160.000000    -2.700000 
1572480.000000    -2.700000 
1612800.000000    -2.700000 
1653120.000000    -2.700000 
1693440.000000    -2.300000 
1733760.000000    -2.300000 
1774080.000000    -2.300000 
1814400.000000    -2.300000 
1854720.000000    -2.300000 
1895040.000000    -2.300000 
1935360.000000    -2.300000 
1975680.000000    -2.700000 
2016000.000000    -2.700000 
2056320.000000    -2.700000 
2096640.000000    -2.700000 
2136960.000000    -2.700000 
2177280.000000    -2.700000 
2217600.000000    -2.300000 
2257920.000000    -2.300000 
2298240.000000    -2.300000 
2338560.000000    -2.300000 
2378880.000000    -2.300000 
2419200.000000    -2.300000 
2459520.000000    -2.300000 
2499840.000000    -2.700000 
2540160.000000    -2.700000 
2580480.000000    -2.700000 
2620800.000000    -2.700000 
2661120.000000    -2.700000 
2701440.000000    -2.700000 
2741760.000000    -2.300000 
2782080.000000    -2.300000 
2822400.000000    -2.300000 
2862720.000000    -2.300000 
2903040.000000    -2.300000 
2943360.000000    -2.300000 
2983680.000000    -2.300000 
3024000.000000    -2.700000 
3064320.000000    -2.700000 
3104640.000000    -2.700000 
3144960.000000    -2.700000 
3185280.000000    -2.700000 
3225600.000000    -2.700000 
3265920.000000    -2.300000 
3306240.000000    -2.300000 
3346560.000000    -2.300000 
3386880.000000    -2.300000 
3427200.000000    -2.300000 
3467520.000000    -2.300000 
3507840.000000    -2.300000 
3548160.000000    -2.700000 
3588480.000000    -2.700000 
3628800.000000    -2.700000 
3669120.000000    -2.700000 
3709440.000000    -2.700000 
3749760.000000    -2.700000 
3790080.000000    -2.300000 
3830400.000000    -2.300000 
3870720.000000    -2.300000 
3911040.000000    -2.300000 
3951360.000000    -2.300000 
3991680.000000    -2.300000 
4032000.000000    -2.300000 
4072320.000000    -2.700000 
4112640.000000    -2.700000 
4152960.000000    -2.700000 
4193280.000000    -2.700000 
4233600.000000    -2.700000 
4273920.000000    -2.700000 
4314240.000000    -2.300000 
4354560.000000    -2.300000 
4394880.000000    -2.300000 
4435200.000000    -2.300000 
4475520.000000    -2.300000 
4515840.000000    -2.300000 
4556160.000000    -2.300000 
4596480.000000    -2.700000 
4636800.000000    -2.700000 
4677120.000000    -2.700000 
4717440.000000    -2.700000 
4757760.000000    -2.700000 
4798080.000000    -2.700000 
4838400.000000    -2.700000 
4878720.000000    -2.300000 
4919040.000000    -2.300000 
4959360.000000    -2.300000 
4999680.000000    -2.300000 
5040000.000000    -2.300000 
5080320.000000    -2.300000 
5120640.000000    -2.700000 
5160960.000000    -2.700000 
5201280.000000    -2.700000 
5241600.000000    -2.700000 
5281920.000000    -2.700000 
5322240.000000    -2.700000 
5362560.000000    -2.700000 
5402880.000000    -2.300000 
5443200.000000    -2.300000 
5483520.000000    -2.300000 
5523840.000000    -2.300000 
5564160.000000    -2.300000 
5604480.000000    -2.300000 
5644800.000000    -2.700000 
5685120.000000    -2.700000 
5725440.000000    -2.700000 
5765760.000000    -2.700000 
5806080.000000    -2.700000 
5846400.000000    -2.700000 
5886720.000000    -2.700000 
5927040.000000    -2.300000 
5967360.000000    -2.300000 
6007680.000000    -2.300000 
6048000.000000    -2.300000 
6088320.000000    -2.300000 
6128640.000000    -2.300000 
6168960.000000    -2.700000 
6209280.000000    -2.700000 
6249600.000000    -2.700000 
6289920.000000    -2.700000 
6330240.000000    -2.700000 
6370560.000000    -2.700000 
6410880.000000    -2.700000 
6451200.000000    -2.300000 
6491520.000000    -2.300000 
6531840.000000    -2.300000 
6572160.000000    -2.300000 
6612480.000000    -2.300000 
6652800.000000    -2.300000 
6693120.000000    -2.700000 
6733440.000000    -2.700000 
6773760.000000    -2.700000 
6814080.000000    -2.700000 
6854400.000000    -2.700000 
6894720.000000    -2.700000 
6935040.000000    -2.700000 
6975360.000000    -2.300000 
7015680.000000    -2.300000 
7056000.000000    -2.300000 
7096320.000000    -2.300000 
7136640.000000    -2.300000 
7176960.000000    -2.300000 
7217280.000000    -2.700000 
7257600.000000    -2.700000 
7297920.000000    -2.700000 
7338240.000000    -2.700000 
7378560.000000    -2.700000 
7418880.000000    -2.700000 
7459200.000000    -2.700000 
7499520.000000    -2.300000 
7539840.000000    -2.300000 
7580160.000000    -2.300000 
7620480.000000    -2.300000 
7660800.000000    -2.300000 
7701120.000000    -2.300000 
7741440.000000    -2.700000 
7781760.000000    -2.700000 
7822080.000000    -2.700000 
7862400.000000    -2.700000 
7902720.000000    -2.700000 
7943040.000000    -2.700000 
7983360.000000    -2.700000 
8023680.000000    -2.300000 
8064000.000000    -2.300000 
8104320.000000    -2.300000 
8144640.000000    -2.300000 
8184960.000000    -2.300000 
8225280.000000    -2.300000 
8265600.000000    -2.700000 
8305920.000000    -2.700000 
8346240.000000    -2.700000 
8386560.000000    -2.700000 
8426880.000000    -2.700000 
8467200.000000    -2.700000 
8507520.000000    -2.700000 
8547840.000000    -2.300000 
8588160.000000    -2.300000 
8628480.000000    -2.300000 
8668800.000000    -2.300000 
8709120.000000    -2.300000 
8749440.000000    -2.300000 
8789760.000000    -2.700000 
8830080.000000    -2.700000 
8870400.000000    -2.700000 
8910720.000000    -2.700000 
8951040.000000    -2.700000 
8991360.000000    -2.700000 
9031680.000000    -2.700000 
9072000.000000    -2.300000 
9112320.000000    -2.300000 
9152640.000000    -2.300000 
9192960.000000    -2.300000 
9233280.000000    -2.300000 
9273600.000000    -2.300000 
9313920.000000    -2.700000 
9354240.000000    -2.700000 
9394560.000000    -2.700000 
9434880.000000    -2.700000 
9475200.000000    -2.700000 
9515520.000000    -2.700000 
9555840.000000    -2.700000 
9596160.000000    -2.300000 
9636480.000000    -2.300000 
9676800.000000    -2.300000 
9717120.000000    -2.300000 
9757440.000000    -2.300000 
9797760.000000    -2.300000 
9838080.000000    -2.700000 
9878400.000000    -2.700000 
9918720.000000    -2.700000 
9959040.000000    -2.700000 
9999360.000000    -2.700000 
10039680.000000    -2.700000 
10080000.000000    -2.700000 
10120320.000000    -2.300000 
10160640.000000    -2.300000 
10200960.000000    -2.300000 
10241280.000000    -2.300000 
10281600.000000    -2.300000 
10321920.000000    -2.300000 
10362240.000000    -2.300000 
10402560.000000    -2.700000 
10442880.000000    -2.700000 
10483200.000000    -2.700000 
10523520.000000    -2.700000 
10563840.000000    -2.700000 

[Forcing]
name       = KST-O-17740
function   = timeseries
timeInterpolation = linear
quantity   = time
unit       = minutes since 2010-01-01 00:00:00
quantity   = weir_crestLevel
unit       = m+NAP
    0.000000    -2.100000 
40320.000000    -2.100000 
80640.000000    -2.100000 
120960.000000    -1.850000 
161280.000000    -1.850000 
201600.000000    -1.850000 
241920.000000    -1.850000 
282240.000000    -1.850000 
322560.000000    -1.850000 
362880.000000    -1.850000 
403200.000000    -2.100000 
443520.000000    -2.100000 
483840.000000    -2.100000 
524160.000000    -2.100000 
564480.000000    -2.100000 
604800.000000    -2.100000 
645120.000000    -1.850000 
685440.000000    -1.850000 
725760.000000    -1.850000 
766080.000000    -1.850000 
806400.000000    -1.850000 
846720.000000    -1.850000 
887040.000000    -1.850000 
927360.000000    -2.100000 
967680.000000    -2.100000 
1008000.000000    -2.100000 
1048320.000000    -2.100000 
1088640.000000    -2.100000 
1128960.000000    -2.100000 
1169280.000000    -1.850000 
1209600.000000    -1.850000 
1249920.000000    -1.850000 
1290240.000000    -1.850000 
1330560.000000    -1.850000 
1370880.000000    -1.850000 
1411200.000000    -1.850000 
1451520.000000    -2.100000 
1491840.000000    -2.100000 
1532160.000000    -2.100000 
1572480.000000    -2.100000 
1612800.000000    -2.100000 
1653120.000000    -2.100000 
1693440.000000    -1.850000 
1733760.000000    -1.850000 
1774080.000000    -1.850000 
1814400.000000    -1.850000 
1854720.000000    -1.850000 
1895040.000000    -1.850000 
1935360.000000    -1.850000 
1975680.000000    -2.100000 
2016000.000000    -2.100000 
2056320.000000    -2.100000 
2096640.000000    -2.100000 
2136960.000000    -2.100000 
2177280.000000    -2.100000 
2217600.000000    -1.850000 
2257920.000000    -1.850000 
2298240.000000    -1.850000 
2338560.000000    -1.850000 
2378880.000000    -1.850000 
2419200.000000    -1.850000 
2459520.000000    -1.850000 
2499840.000000    -2.100000 
2540160.000000    -2.100000 
2580480.000000    -2.100000 
2620800.000000    -2.100000 
2661120.000000    -2.100000 
2701440.000000    -2.100000 
2741760.000000    -1.850000 
2782080.000000    -1.850000 
2822400.000000    -1.850000 
2862720.000000    -1.850000 
2903040.000000    -1.850000 
2943360.000000    -1.850000 
2983680.000000    -1.850000 
3024000.000000    -2.100000 
3064320.000000    -2.100000 
3104640.000000    -2.100000 
3144960.000000    -2.100000 
3185280.000000    -2.100000 
3225600.000000    -2.100000 
3265920.000000    -1.850000 
3306240.000000    -1.850000 
3346560.000000    -1.850000 
3386880.000000    -1.850000 
3427200.000000    -1.850000 
3467520.000000    -1.850000 
3507840.000000    -1.850000 
3548160.000000    -2.100000 
3588480.000000    -2.100000 
3628800.000000    -2.100000 
3669120.000000    -2.100000 
3709440.000000    -2.100000 
3749760.000000    -2.100000 
3790080.000000    -1.850000 
3830400.000000    -1.850000 
3870720.000000    -1.850000 
3911040.000000    -1.850000 
3951360.000000    -1.850000 
3991680.000000    -1.850000 
4032000.000000    -1.850000 
4072320.000000    -2.100000 
4112640.000000    -2.100000 
4152960.000000    -2.100000 
4193280.000000    -2.100000 
4233600.000000    -2.100000 
4273920.000000    -2.100000 
4314240.000000    -1.850000 
4354560.000000    -1.850000 
4394880.000000    -1.850000 
4435200.000000    -1.850000 
4475520.000000    -1.850000 
4515840.000000    -1.850000 
4556160.000000    -1.850000 
4596480.000000    -2.100000 
4636800.000000    -2.100000 
4677120.000000    -2.100000 
4717440.000000    -2.100000 
4757760.000000    -2.100000 
4798080.000000    -2.100000 
4838400.000000    -2.100000 
4878720.000000    -1.850000 
4919040.000000    -1.850000 
4959360.000000    -1.850000 
4999680.000000    -1.850000 
5040000.000000    -1.850000 
5080320.000000    -1.850000 
5120640.000000    -2.100000 
5160960.000000    -2.100000 
5201280.000000    -2.100000 
5241600.000000    -2.100000 
5281920.000000    -2.100000 
5322240.000000    -2.100000 
5362560.000000    -2.100000 
5402880.000000    -1.850000 
5443200.000000    -1.850000 
5483520.000000    -1.850000 
5523840.000000    -1.850000 
5564160.000000    -1.850000 
5604480.000000    -1.850000 
5644800.000000    -2.100000 
5685120.000000    -2.100000 
5725440.000000    -2.100000 
5765760.000000    -2.100000 
5806080.000000    -2.100000 
5846400.000000    -2.100000 
5886720.000000    -2.100000 
5927040.000000    -1.850000 
5967360.000000    -1.850000 
6007680.000000    -1.850000 
6048000.000000    -1.850000 
6088320.000000    -1.850000 
6128640.000000    -1.850000 
6168960.000000    -2.100000 
6209280.000000    -2.100000 
6249600.000000    -2.100000 
6289920.000000    -2.100000 
6330240.000000    -2.100000 
6370560.000000    -2.100000 
6410880.000000    -2.100000 
6451200.000000    -1.850000 
6491520.000000    -1.850000 
6531840.000000    -1.850000 
6572160.000000    -1.850000 
6612480.000000    -1.850000 
6652800.000000    -1.850000 
6693120.000000    -2.100000 
6733440.000000    -2.100000 
6773760.000000    -2.100000 
6814080.000000    -2.100000 
6854400.000000    -2.100000 
6894720.000000    -2.100000 
6935040.000000    -2.100000 
6975360.000000    -1.850000 
7015680.000000    -1.850000 
7056000.000000    -1.850000 
7096320.000000    -1.850000 
7136640.000000    -1.850000 
7176960.000000    -1.850000 
7217280.000000    -2.100000 
7257600.000000    -2.100000 
7297920.000000    -2.100000 
7338240.000000    -2.100000 
7378560.000000    -2.100000 
7418880.000000    -2.100000 
7459200.000000    -2.100000 
7499520.000000    -1.850000 
7539840.000000    -1.850000 
7580160.000000    -1.850000 
7620480.000000    -1.850000 
7660800.000000    -1.850000 
7701120.000000    -1.850000 
7741440.000000    -2.100000 
7781760.000000    -2.100000 
7822080.000000    -2.100000 
7862400.000000    -2.100000 
7902720.000000    -2.100000 
7943040.000000    -2.100000 
7983360.000000    -2.100000 
8023680.000000    -1.850000 
8064000.000000    -1.850000 
8104320.000000    -1.850000 
8144640.000000    -1.850000 
8184960.000000    -1.850000 
8225280.000000    -1.850000 
8265600.000000    -2.100000 
8305920.000000    -2.100000 
8346240.000000    -2.100000 
8386560.000000    -2.100000 
8426880.000000    -2.100000 
8467200.000000    -2.100000 
8507520.000000    -2.100000 
8547840.000000    -1.850000 
8588160.000000    -1.850000 
8628480.000000    -1.850000 
8668800.000000    -1.850000 
8709120.000000    -1.850000 
8749440.000000    -1.850000 
8789760.000000    -2.100000 
8830080.000000    -2.100000 
8870400.000000    -2.100000 
8910720.000000    -2.100000 
8951040.000000    -2.100000 
8991360.000000    -2.100000 
9031680.000000    -2.100000 
9072000.000000    -1.850000 
9112320.000000    -1.850000 
9152640.000000    -1.850000 
9192960.000000    -1.850000 
9233280.000000    -1.850000 
9273600.000000    -1.850000 
9313920.000000    -2.100000 
9354240.000000    -2.100000 
9394560.000000    -2.100000 
9434880.000000    -2.100000 
9475200.000000    -2.100000 
9515520.000000    -2.100000 
9555840.000000    -2.100000 
9596160.000000    -1.850000 
9636480.000000    -1.850000 
9676800.000000    -1.850000 
9717120.000000    -1.850000 
9757440.000000    -1.850000 
9797760.000000    -1.850000 
9838080.000000    -2.100000 
9878400.000000    -2.100000 
9918720.000000    -2.100000 
9959040.000000    -2.100000 
9999360.000000    -2.100000 
10039680.000000    -2.100000 
10080000.000000    -2.100000 
10120320.000000    -1.850000 
10160640.000000    -1.850000 
10200960.000000    -1.850000 
10241280.000000    -1.850000 
10281600.000000    -1.850000 
10321920.000000    -1.850000 
10362240.000000    -1.850000 
10402560.000000    -2.100000 
10442880.000000    -2.100000 
10483200.000000    -2.100000 
10523520.000000    -2.100000 
10563840.000000    -2.100000 

[Forcing]
name       = KST-O-17660
function   = timeseries
timeInterpolation = linear
quantity   = time
unit       = minutes since 2010-01-01 00:00:00
quantity   = weir_crestLevel
unit       = m+NAP
    0.000000    -1.450000 
40320.000000    -1.450000 
80640.000000    -1.450000 
120960.000000    -0.950000 
161280.000000    -0.950000 
201600.000000    -0.950000 
241920.000000    -0.950000 
282240.000000    -0.950000 
322560.000000    -0.950000 
362880.000000    -0.950000 
403200.000000    -1.450000 
443520.000000    -1.450000 
483840.000000    -1.450000 
524160.000000    -1.450000 
564480.000000    -1.450000 
604800.000000    -1.450000 
645120.000000    -0.950000 
685440.000000    -0.950000 
725760.000000    -0.950000 
766080.000000    -0.950000 
806400.000000    -0.950000 
846720.000000    -0.950000 
887040.000000    -0.950000 
927360.000000    -1.450000 
967680.000000    -1.450000 
1008000.000000    -1.450000 
1048320.000000    -1.450000 
1088640.000000    -1.450000 
1128960.000000    -1.450000 
1169280.000000    -0.950000 
1209600.000000    -0.950000 
1249920.000000    -0.950000 
1290240.000000    -0.950000 
1330560.000000    -0.950000 
1370880.000000    -0.950000 
1411200.000000    -0.950000 
1451520.000000    -1.450000 
1491840.000000    -1.450000 
1532160.000000    -1.450000 
1572480.000000    -1.450000 
1612800.000000    -1.450000 
1653120.000000    -1.450000 
1693440.000000    -0.950000 
1733760.000000    -0.950000 
1774080.000000    -0.950000 
1814400.000000    -0.950000 
1854720.000000    -0.950000 
1895040.000000    -0.950000 
1935360.000000    -0.950000 
1975680.000000    -1.450000 
2016000.000000    -1.450000 
2056320.000000    -1.450000 
2096640.000000    -1.450000 
2136960.000000    -1.450000 
2177280.000000    -1.450000 
2217600.000000    -0.950000 
2257920.000000    -0.950000 
2298240.000000    -0.950000 
2338560.000000    -0.950000 
2378880.000000    -0.950000 
2419200.000000    -0.950000 
2459520.000000    -0.950000 
2499840.000000    -1.450000 
2540160.000000    -1.450000 
2580480.000000    -1.450000 
2620800.000000    -1.450000 
2661120.000000    -1.450000 
2701440.000000    -1.450000 
2741760.000000    -0.950000 
2782080.000000    -0.950000 
2822400.000000    -0.950000 
2862720.000000    -0.950000 
2903040.000000    -0.950000 
2943360.000000    -0.950000 
2983680.000000    -0.950000 
3024000.000000    -1.450000 
3064320.000000    -1.450000 
3104640.000000    -1.450000 
3144960.000000    -1.450000 
3185280.000000    -1.450000 
3225600.000000    -1.450000 
3265920.000000    -0.950000 
3306240.000000    -0.950000 
3346560.000000    -0.950000 
3386880.000000    -0.950000 
3427200.000000    -0.950000 
3467520.000000    -0.950000 
3507840.000000    -0.950000 
3548160.000000    -1.450000 
3588480.000000    -1.450000 
3628800.000000    -1.450000 
3669120.000000    -1.450000 
3709440.000000    -1.450000 
3749760.000000    -1.450000 
3790080.000000    -0.950000 
3830400.000000    -0.950000 
3870720.000000    -0.950000 
3911040.000000    -0.950000 
3951360.000000    -0.950000 
3991680.000000    -0.950000 
4032000.000000    -0.950000 
4072320.000000    -1.450000 
4112640.000000    -1.450000 
4152960.000000    -1.450000 
4193280.000000    -1.450000 
4233600.000000    -1.450000 
4273920.000000    -1.450000 
4314240.000000    -0.950000 
4354560.000000    -0.950000 
4394880.000000    -0.950000 
4435200.000000    -0.950000 
4475520.000000    -0.950000 
4515840.000000    -0.950000 
4556160.000000    -0.950000 
4596480.000000    -1.450000 
4636800.000000    -1.450000 
4677120.000000    -1.450000 
4717440.000000    -1.450000 
4757760.000000    -1.450000 
4798080.000000    -1.450000 
4838400.000000    -1.450000 
4878720.000000    -0.950000 
4919040.000000    -0.950000 
4959360.000000    -0.950000 
4999680.000000    -0.950000 
5040000.000000    -0.950000 
5080320.000000    -0.950000 
5120640.000000    -1.450000 
5160960.000000    -1.450000 
5201280.000000    -1.450000 
5241600.000000    -1.450000 
5281920.000000    -1.450000 
5322240.000000    -1.450000 
5362560.000000    -1.450000 
5402880.000000    -0.950000 
5443200.000000    -0.950000 
5483520.000000    -0.950000 
5523840.000000    -0.950000 
5564160.000000    -0.950000 
5604480.000000    -0.950000 
5644800.000000    -1.450000 
5685120.000000    -1.450000 
5725440.000000    -1.450000 
5765760.000000    -1.450000 
5806080.000000    -1.450000 
5846400.000000    -1.450000 
5886720.000000    -1.450000 
5927040.000000    -0.950000 
5967360.000000    -0.950000 
6007680.000000    -0.950000 
6048000.000000    -0.950000 
6088320.000000    -0.950000 
6128640.000000    -0.950000 
6168960.000000    -1.450000 
6209280.000000    -1.450000 
6249600.000000    -1.450000 
6289920.000000    -1.450000 
6330240.000000    -1.450000 
6370560.000000    -1.450000 
6410880.000000    -1.450000 
6451200.000000    -0.950000 
6491520.000000    -0.950000 
6531840.000000    -0.950000 
6572160.000000    -0.950000 
6612480.000000    -0.950000 
6652800.000000    -0.950000 
6693120.000000    -1.450000 
6733440.000000    -1.450000 
6773760.000000    -1.450000 
6814080.000000    -1.450000 
6854400.000000    -1.450000 
6894720.000000    -1.450000 
6935040.000000    -1.450000 
6975360.000000    -0.950000 
7015680.000000    -0.950000 
7056000.000000    -0.950000 
7096320.000000    -0.950000 
7136640.000000    -0.950000 
7176960.000000    -0.950000 
7217280.000000    -1.450000 
7257600.000000    -1.450000 
7297920.000000    -1.450000 
7338240.000000    -1.450000 
7378560.000000    -1.450000 
7418880.000000    -1.450000 
7459200.000000    -1.450000 
7499520.000000    -0.950000 
7539840.000000    -0.950000 
7580160.000000    -0.950000 
7620480.000000    -0.950000 
7660800.000000    -0.950000 
7701120.000000    -0.950000 
7741440.000000    -1.450000 
7781760.000000    -1.450000 
7822080.000000    -1.450000 
7862400.000000    -1.450000 
7902720.000000    -1.450000 
7943040.000000    -1.450000 
7983360.000000    -1.450000 
8023680.000000    -0.950000 
8064000.000000    -0.950000 
8104320.000000    -0.950000 
8144640.000000    -0.950000 
8184960.000000    -0.950000 
8225280.000000    -0.950000 
8265600.000000    -1.450000 
8305920.000000    -1.450000 
8346240.000000    -1.450000 
8386560.000000    -1.450000 
8426880.000000    -1.450000 
8467200.000000    -1.450000 
8507520.000000    -1.450000 
8547840.000000    -0.950000 
8588160.000000    -0.950000 
8628480.000000    -0.950000 
8668800.000000    -0.950000 
8709120.000000    -0.950000 
8749440.000000    -0.950000 
8789760.000000    -1.450000 
8830080.000000    -1.450000 
8870400.000000    -1.450000 
8910720.000000    -1.450000 
8951040.000000    -1.450000 
8991360.000000    -1.450000 
9031680.000000    -1.450000 
9072000.000000    -0.950000 
9112320.000000    -0.950000 
9152640.000000    -0.950000 
9192960.000000    -0.950000 
9233280.000000    -0.950000 
9273600.000000    -0.950000 
9313920.000000    -1.450000 
9354240.000000    -1.450000 
9394560.000000    -1.450000 
9434880.000000    -1.450000 
9475200.000000    -1.450000 
9515520.000000    -1.450000 
9555840.000000    -1.450000 
9596160.000000    -0.950000 
9636480.000000    -0.950000 
9676800.000000    -0.950000 
9717120.000000    -0.950000 
9757440.000000    -0.950000 
9797760.000000    -0.950000 
9838080.000000    -1.450000 
9878400.000000    -1.450000 
9918720.000000    -1.450000 
9959040.000000    -1.450000 
9999360.000000    -1.450000 
10039680.000000    -1.450000 
10080000.000000    -1.450000 
10120320.000000    -0.950000 
10160640.000000    -0.950000 
10200960.000000    -0.950000 
10241280.000000    -0.950000 
10281600.000000    -0.950000 
10321920.000000    -0.950000 
10362240.000000    -0.950000 
10402560.000000    -1.450000 
10442880.000000    -1.450000 
10483200.000000    -1.450000 
10523520.000000    -1.450000 
10563840.000000    -1.450000 

[Forcing]
name       = KST-O-17670
function   = timeseries
timeInterpolation = linear
quantity   = time
unit       = minutes since 2010-01-01 00:00:00
quantity   = weir_crestLevel
unit       = m+NAP
    0.000000    -1.750000 
40320.000000    -1.750000 
80640.000000    -1.750000 
120960.000000    -1.250000 
161280.000000    -1.250000 
201600.000000    -1.250000 
241920.000000    -1.250000 
282240.000000    -1.250000 
322560.000000    -1.250000 
362880.000000    -1.250000 
403200.000000    -1.750000 
443520.000000    -1.750000 
483840.000000    -1.750000 
524160.000000    -1.750000 
564480.000000    -1.750000 
604800.000000    -1.750000 
645120.000000    -1.250000 
685440.000000    -1.250000 
725760.000000    -1.250000 
766080.000000    -1.250000 
806400.000000    -1.250000 
846720.000000    -1.250000 
887040.000000    -1.250000 
927360.000000    -1.750000 
967680.000000    -1.750000 
1008000.000000    -1.750000 
1048320.000000    -1.750000 
1088640.000000    -1.750000 
1128960.000000    -1.750000 
1169280.000000    -1.250000 
1209600.000000    -1.250000 
1249920.000000    -1.250000 
1290240.000000    -1.250000 
1330560.000000    -1.250000 
1370880.000000    -1.250000 
1411200.000000    -1.250000 
1451520.000000    -1.750000 
1491840.000000    -1.750000 
1532160.000000    -1.750000 
1572480.000000    -1.750000 
1612800.000000    -1.750000 
1653120.000000    -1.750000 
1693440.000000    -1.250000 
1733760.000000    -1.250000 
1774080.000000    -1.250000 
1814400.000000    -1.250000 
1854720.000000    -1.250000 
1895040.000000    -1.250000 
1935360.000000    -1.250000 
1975680.000000    -1.750000 
2016000.000000    -1.750000 
2056320.000000    -1.750000 
2096640.000000    -1.750000 
2136960.000000    -1.750000 
2177280.000000    -1.750000 
2217600.000000    -1.250000 
2257920.000000    -1.250000 
2298240.000000    -1.250000 
2338560.000000    -1.250000 
2378880.000000    -1.250000 
2419200.000000    -1.250000 
2459520.000000    -1.250000 
2499840.000000    -1.750000 
2540160.000000    -1.750000 
2580480.000000    -1.750000 
2620800.000000    -1.750000 
2661120.000000    -1.750000 
2701440.000000    -1.750000 
2741760.000000    -1.250000 
2782080.000000    -1.250000 
2822400.000000    -1.250000 
2862720.000000    -1.250000 
2903040.000000    -1.250000 
2943360.000000    -1.250000 
2983680.000000    -1.250000 
3024000.000000    -1.750000 
3064320.000000    -1.750000 
3104640.000000    -1.750000 
3144960.000000    -1.750000 
3185280.000000    -1.750000 
3225600.000000    -1.750000 
3265920.000000    -1.250000 
3306240.000000    -1.250000 
3346560.000000    -1.250000 
3386880.000000    -1.250000 
3427200.000000    -1.250000 
3467520.000000    -1.250000 
3507840.000000    -1.250000 
3548160.000000    -1.750000 
3588480.000000    -1.750000 
3628800.000000    -1.750000 
3669120.000000    -1.750000 
3709440.000000    -1.750000 
3749760.000000    -1.750000 
3790080.000000    -1.250000 
3830400.000000    -1.250000 
3870720.000000    -1.250000 
3911040.000000    -1.250000 
3951360.000000    -1.250000 
3991680.000000    -1.250000 
4032000.000000    -1.250000 
4072320.000000    -1.750000 
4112640.000000    -1.750000 
4152960.000000    -1.750000 
4193280.000000    -1.750000 
4233600.000000    -1.750000 
4273920.000000    -1.750000 
4314240.000000    -1.250000 
4354560.000000    -1.250000 
4394880.000000    -1.250000 
4435200.000000    -1.250000 
4475520.000000    -1.250000 
4515840.000000    -1.250000 
4556160.000000    -1.250000 
4596480.000000    -1.750000 
4636800.000000    -1.750000 
4677120.000000    -1.750000 
4717440.000000    -1.750000 
4757760.000000    -1.750000 
4798080.000000    -1.750000 
4838400.000000    -1.750000 
4878720.000000    -1.250000 
4919040.000000    -1.250000 
4959360.000000    -1.250000 
4999680.000000    -1.250000 
5040000.000000    -1.250000 
5080320.000000    -1.250000 
5120640.000000    -1.750000 
5160960.000000    -1.750000 
5201280.000000    -1.750000 
5241600.000000    -1.750000 
5281920.000000    -1.750000 
5322240.000000    -1.750000 
5362560.000000    -1.750000 
5402880.000000    -1.250000 
5443200.000000    -1.250000 
5483520.000000    -1.250000 
5523840.000000    -1.250000 
5564160.000000    -1.250000 
5604480.000000    -1.250000 
5644800.000000    -1.750000 
5685120.000000    -1.750000 
5725440.000000    -1.750000 
5765760.000000    -1.750000 
5806080.000000    -1.750000 
5846400.000000    -1.750000 
5886720.000000    -1.750000 
5927040.000000    -1.250000 
5967360.000000    -1.250000 
6007680.000000    -1.250000 
6048000.000000    -1.250000 
6088320.000000    -1.250000 
6128640.000000    -1.250000 
6168960.000000    -1.750000 
6209280.000000    -1.750000 
6249600.000000    -1.750000 
6289920.000000    -1.750000 
6330240.000000    -1.750000 
6370560.000000    -1.750000 
6410880.000000    -1.750000 
6451200.000000    -1.250000 
6491520.000000    -1.250000 
6531840.000000    -1.250000 
6572160.000000    -1.250000 
6612480.000000    -1.250000 
6652800.000000    -1.250000 
6693120.000000    -1.750000 
6733440.000000    -1.750000 
6773760.000000    -1.750000 
6814080.000000    -1.750000 
6854400.000000    -1.750000 
6894720.000000    -1.750000 
6935040.000000    -1.750000 
6975360.000000    -1.250000 
7015680.000000    -1.250000 
7056000.000000    -1.250000 
7096320.000000    -1.250000 
7136640.000000    -1.250000 
7176960.000000    -1.250000 
7217280.000000    -1.750000 
7257600.000000    -1.750000 
7297920.000000    -1.750000 
7338240.000000    -1.750000 
7378560.000000    -1.750000 
7418880.000000    -1.750000 
7459200.000000    -1.750000 
7499520.000000    -1.250000 
7539840.000000    -1.250000 
7580160.000000    -1.250000 
7620480.000000    -1.250000 
7660800.000000    -1.250000 
7701120.000000    -1.250000 
7741440.000000    -1.750000 
7781760.000000    -1.750000 
7822080.000000    -1.750000 
7862400.000000    -1.750000 
7902720.000000    -1.750000 
7943040.000000    -1.750000 
7983360.000000    -1.750000 
8023680.000000    -1.250000 
8064000.000000    -1.250000 
8104320.000000    -1.250000 
8144640.000000    -1.250000 
8184960.000000    -1.250000 
8225280.000000    -1.250000 
8265600.000000    -1.750000 
8305920.000000    -1.750000 
8346240.000000    -1.750000 
8386560.000000    -1.750000 
8426880.000000    -1.750000 
8467200.000000    -1.750000 
8507520.000000    -1.750000 
8547840.000000    -1.250000 
8588160.000000    -1.250000 
8628480.000000    -1.250000 
8668800.000000    -1.250000 
8709120.000000    -1.250000 
8749440.000000    -1.250000 
8789760.000000    -1.750000 
8830080.000000    -1.750000 
8870400.000000    -1.750000 
8910720.000000    -1.750000 
8951040.000000    -1.750000 
8991360.000000    -1.750000 
9031680.000000    -1.750000 
9072000.000000    -1.250000 
9112320.000000    -1.250000 
9152640.000000    -1.250000 
9192960.000000    -1.250000 
9233280.000000    -1.250000 
9273600.000000    -1.250000 
9313920.000000    -1.750000 
9354240.000000    -1.750000 
9394560.000000    -1.750000 
9434880.000000    -1.750000 
9475200.000000    -1.750000 
9515520.000000    -1.750000 
9555840.000000    -1.750000 
9596160.000000    -1.250000 
9636480.000000    -1.250000 
9676800.000000    -1.250000 
9717120.000000    -1.250000 
9757440.000000    -1.250000 
9797760.000000    -1.250000 
9838080.000000    -1.750000 
9878400.000000    -1.750000 
9918720.000000    -1.750000 
9959040.000000    -1.750000 
9999360.000000    -1.750000 
10039680.000000    -1.750000 
10080000.000000    -1.750000 
10120320.000000    -1.250000 
10160640.000000    -1.250000 
10200960.000000    -1.250000 
10241280.000000    -1.250000 
10281600.000000    -1.250000 
10321920.000000    -1.250000 
10362240.000000    -1.250000 
10402560.000000    -1.750000 
10442880.000000    -1.750000 
10483200.000000    -1.750000 
10523520.000000    -1.750000 
10563840.000000    -1.750000 

[Forcing]
name       = KST-O-17770
function   = timeseries
timeInterpolation = linear
quantity   = time
unit       = minutes since 2010-01-01 00:00:00
quantity   = weir_crestLevel
unit       = m+NAP
    0.000000    -2.650000 
40320.000000    -2.650000 
80640.000000    -2.650000 
120960.000000    -2.250000 
161280.000000    -2.250000 
201600.000000    -2.250000 
241920.000000    -2.250000 
282240.000000    -2.250000 
322560.000000    -2.250000 
362880.000000    -2.250000 
403200.000000    -2.650000 
443520.000000    -2.650000 
483840.000000    -2.650000 
524160.000000    -2.650000 
564480.000000    -2.650000 
604800.000000    -2.650000 
645120.000000    -2.250000 
685440.000000    -2.250000 
725760.000000    -2.250000 
766080.000000    -2.250000 
806400.000000    -2.250000 
846720.000000    -2.250000 
887040.000000    -2.250000 
927360.000000    -2.650000 
967680.000000    -2.650000 
1008000.000000    -2.650000 
1048320.000000    -2.650000 
1088640.000000    -2.650000 
1128960.000000    -2.650000 
1169280.000000    -2.250000 
1209600.000000    -2.250000 
1249920.000000    -2.250000 
1290240.000000    -2.250000 
1330560.000000    -2.250000 
1370880.000000    -2.250000 
1411200.000000    -2.250000 
1451520.000000    -2.650000 
1491840.000000    -2.650000 
1532160.000000    -2.650000 
1572480.000000    -2.650000 
1612800.000000    -2.650000 
1653120.000000    -2.650000 
1693440.000000    -2.250000 
1733760.000000    -2.250000 
1774080.000000    -2.250000 
1814400.000000    -2.250000 
1854720.000000    -2.250000 
1895040.000000    -2.250000 
1935360.000000    -2.250000 
1975680.000000    -2.650000 
[...]
4919040.000000    -3.300000 
4959360.000000    -3.300000 
4999680.000000    -3.300000 
5040000.000000    -3.300000 
5080320.000000    -3.300000 
5120640.000000    -3.600000 
5160960.000000    -3.600000 
5201280.000000    -3.600000 
5241600.000000    -3.600000 
5281920.000000    -3.600000 
5322240.000000    -3.600000 
5362560.000000    -3.600000 
5402880.000000    -3.300000 
5443200.000000    -3.300000 
5483520.000000    -3.300000 
5523840.000000    -3.300000 
5564160.000000    -3.300000 
5604480.000000    -3.300000 
5644800.000000    -3.600000 
5685120.000000    -3.600000 
5725440.000000    -3.600000 
5765760.000000    -3.600000 
5806080.000000    -3.600000 
5846400.000000    -3.600000 
5886720.000000    -3.600000 
5927040.000000    -3.300000 
5967360.000000    -3.300000 
6007680.000000    -3.300000 
6048000.000000    -3.300000 
6088320.000000    -3.300000 
6128640.000000    -3.300000 
6168960.000000    -3.600000 
6209280.000000    -3.600000 
6249600.000000    -3.600000 
6289920.000000    -3.600000 
6330240.000000    -3.600000 
6370560.000000    -3.600000 
6410880.000000    -3.600000 
6451200.000000    -3.300000 
6491520.000000    -3.300000 
6531840.000000    -3.300000 
6572160.000000    -3.300000 
6612480.000000    -3.300000 
6652800.000000    -3.300000 
6693120.000000    -3.600000 
6733440.000000    -3.600000 
6773760.000000    -3.600000 
6814080.000000    -3.600000 
6854400.000000    -3.600000 
6894720.000000    -3.600000 
6935040.000000    -3.600000 
6975360.000000    -3.300000 
7015680.000000    -3.300000 
7056000.000000    -3.300000 
7096320.000000    -3.300000 
7136640.000000    -3.300000 
7176960.000000    -3.300000 
7217280.000000    -3.600000 
7257600.000000    -3.600000 
7297920.000000    -3.600000 
7338240.000000    -3.600000 
7378560.000000    -3.600000 
7418880.000000    -3.600000 
7459200.000000    -3.600000 
7499520.000000    -3.300000 
7539840.000000    -3.300000 
7580160.000000    -3.300000 
7620480.000000    -3.300000 
7660800.000000    -3.300000 
7701120.000000    -3.300000 
7741440.000000    -3.600000 
7781760.000000    -3.600000 
7822080.000000    -3.600000 
7862400.000000    -3.600000 
7902720.000000    -3.600000 
7943040.000000    -3.600000 
7983360.000000    -3.600000 
8023680.000000    -3.300000 
8064000.000000    -3.300000 
8104320.000000    -3.300000 
8144640.000000    -3.300000 
8184960.000000    -3.300000 
8225280.000000    -3.300000 
8265600.000000    -3.600000 
8305920.000000    -3.600000 
8346240.000000    -3.600000 
8386560.000000    -3.600000 
8426880.000000    -3.600000 
8467200.000000    -3.600000 
8507520.000000    -3.600000 
8547840.000000    -3.300000 
8588160.000000    -3.300000 
8628480.000000    -3.300000 
8668800.000000    -3.300000 
8709120.000000    -3.300000 
8749440.000000    -3.300000 
8789760.000000    -3.600000 
8830080.000000    -3.600000 
8870400.000000    -3.600000 
8910720.000000    -3.600000 
8951040.000000    -3.600000 
8991360.000000    -3.600000 
9031680.000000    -3.600000 
9072000.000000    -3.300000 
9112320.000000    -3.300000 
9152640.000000    -3.300000 
9192960.000000    -3.300000 
9233280.000000    -3.300000 
9273600.000000    -3.300000 
9313920.000000    -3.600000 
9354240.000000    -3.600000 
9394560.000000    -3.600000 
9434880.000000    -3.600000 
9475200.000000    -3.600000 
9515520.000000    -3.600000 
9555840.000000    -3.600000 
9596160.000000    -3.300000 
9636480.000000    -3.300000 
9676800.000000    -3.300000 
9717120.000000    -3.300000 
9757440.000000    -3.300000 
9797760.000000    -3.300000 
9838080.000000    -3.600000 
9878400.000000    -3.600000 
9918720.000000    -3.600000 
9959040.000000    -3.600000 
9999360.000000    -3.600000 
10039680.000000    -3.600000 
10080000.000000    -3.600000 
10120320.000000    -3.300000 
10160640.000000    -3.300000 
10200960.000000    -3.300000 
10241280.000000    -3.300000 
10281600.000000    -3.300000 
10321920.000000    -3.300000 
10362240.000000    -3.300000 
10402560.000000    -3.600000 
10442880.000000    -3.600000 
10483200.000000    -3.600000 
10523520.000000    -3.600000 
10563840.000000    -3.600000 

[Forcing]
name       = KST-O-17790
function   = timeseries
timeInterpolation = linear
quantity   = time
unit       = minutes since 2010-01-01 00:00:00
quantity   = weir_crestLevel
unit       = m+NAP
    0.000000    -2.900000 
40320.000000    -2.900000 
80640.000000    -2.900000 
120960.000000    -2.600000 
161280.000000    -2.600000 
201600.000000    -2.600000 
241920.000000    -2.600000 
282240.000000    -2.600000 
322560.000000    -2.600000 
362880.000000    -2.600000 
403200.000000    -2.900000 
443520.000000    -2.900000 
483840.000000    -2.900000 
524160.000000    -2.900000 
564480.000000    -2.900000 
604800.000000    -2.900000 
645120.000000    -2.600000 
685440.000000    -2.600000 
725760.000000    -2.600000 
766080.000000    -2.600000 
806400.000000    -2.600000 
846720.000000    -2.600000 
887040.000000    -2.600000 
927360.000000    -2.900000 
967680.000000    -2.900000 
1008000.000000    -2.900000 
1048320.000000    -2.900000 
1088640.000000    -2.900000 
1128960.000000    -2.900000 
1169280.000000    -2.600000 
1209600.000000    -2.600000 
1249920.000000    -2.600000 
1290240.000000    -2.600000 
1330560.000000    -2.600000 
1370880.000000    -2.600000 
1411200.000000    -2.600000 
1451520.000000    -2.900000 
1491840.000000    -2.900000 
1532160.000000    -2.900000 
1572480.000000    -2.900000 
1612800.000000    -2.900000 
1653120.000000    -2.900000 
1693440.000000    -2.600000 
1733760.000000    -2.600000 
1774080.000000    -2.600000 
1814400.000000    -2.600000 
1854720.000000    -2.600000 
1895040.000000    -2.600000 
1935360.000000    -2.600000 
1975680.000000    -2.900000 
2016000.000000    -2.900000 
2056320.000000    -2.900000 
2096640.000000    -2.900000 
2136960.000000    -2.900000 
2177280.000000    -2.900000 
2217600.000000    -2.600000 
2257920.000000    -2.600000 
2298240.000000    -2.600000 
2338560.000000    -2.600000 
2378880.000000    -2.600000 
2419200.000000    -2.600000 
2459520.000000    -2.600000 
2499840.000000    -2.900000 
2540160.000000    -2.900000 
2580480.000000    -2.900000 
2620800.000000    -2.900000 
2661120.000000    -2.900000 
2701440.000000    -2.900000 
2741760.000000    -2.600000 
2782080.000000    -2.600000 
2822400.000000    -2.600000 
2862720.000000    -2.600000 
2903040.000000    -2.600000 
2943360.000000    -2.600000 
2983680.000000    -2.600000 
3024000.000000    -2.900000 
3064320.000000    -2.900000 
3104640.000000    -2.900000 
3144960.000000    -2.900000 
3185280.000000    -2.900000 
3225600.000000    -2.900000 
3265920.000000    -2.600000 
3306240.000000    -2.600000 
3346560.000000    -2.600000 
3386880.000000    -2.600000 
3427200.000000    -2.600000 
3467520.000000    -2.600000 
3507840.000000    -2.600000 
3548160.000000    -2.900000 
3588480.000000    -2.900000 
3628800.000000    -2.900000 
3669120.000000    -2.900000 
3709440.000000    -2.900000 
3749760.000000    -2.900000 
3790080.000000    -2.600000 
3830400.000000    -2.600000 
3870720.000000    -2.600000 
3911040.000000    -2.600000 
3951360.000000    -2.600000 
3991680.000000    -2.600000 
4032000.000000    -2.600000 
4072320.000000    -2.900000 
4112640.000000    -2.900000 
4152960.000000    -2.900000 
4193280.000000    -2.900000 
4233600.000000    -2.900000 
4273920.000000    -2.900000 
4314240.000000    -2.600000 
4354560.000000    -2.600000 
4394880.000000    -2.600000 
4435200.000000    -2.600000 
4475520.000000    -2.600000 
4515840.000000    -2.600000 
4556160.000000    -2.600000 
4596480.000000    -2.900000 
4636800.000000    -2.900000 
4677120.000000    -2.900000 
4717440.000000    -2.900000 
4757760.000000    -2.900000 
4798080.000000    -2.900000 
4838400.000000    -2.900000 
4878720.000000    -2.600000 
4919040.000000    -2.600000 
4959360.000000    -2.600000 
4999680.000000    -2.600000 
5040000.000000    -2.600000 
5080320.000000    -2.600000 
5120640.000000    -2.900000 
5160960.000000    -2.900000 
5201280.000000    -2.900000 
5241600.000000    -2.900000 
5281920.000000    -2.900000 
5322240.000000    -2.900000 
5362560.000000    -2.900000 
5402880.000000    -2.600000 
5443200.000000    -2.600000 
5483520.000000    -2.600000 
5523840.000000    -2.600000 
5564160.000000    -2.600000 
5604480.000000    -2.600000 
5644800.000000    -2.900000 
5685120.000000    -2.900000 
5725440.000000    -2.900000 
5765760.000000    -2.900000 
5806080.000000    -2.900000 
5846400.000000    -2.900000 
5886720.000000    -2.900000 
5927040.000000    -2.600000 
5967360.000000    -2.600000 
6007680.000000    -2.600000 
6048000.000000    -2.600000 
6088320.000000    -2.600000 
6128640.000000    -2.600000 
6168960.000000    -2.900000 
6209280.000000    -2.900000 
6249600.000000    -2.900000 
6289920.000000    -2.900000 
6330240.000000    -2.900000 
6370560.000000    -2.900000 
6410880.000000    -2.900000 
6451200.000000    -2.600000 
6491520.000000    -2.600000 
6531840.000000    -2.600000 
6572160.000000    -2.600000 
6612480.000000    -2.600000 
6652800.000000    -2.600000 
6693120.000000    -2.900000 
6733440.000000    -2.900000 
6773760.000000    -2.900000 
6814080.000000    -2.900000 
6854400.000000    -2.900000 
6894720.000000    -2.900000 
6935040.000000    -2.900000 
6975360.000000    -2.600000 
7015680.000000    -2.600000 
7056000.000000    -2.600000 
7096320.000000    -2.600000 
7136640.000000    -2.600000 
7176960.000000    -2.600000 
7217280.000000    -2.900000 
7257600.000000    -2.900000 
7297920.000000    -2.900000 
7338240.000000    -2.900000 
7378560.000000    -2.900000 
7418880.000000    -2.900000 
7459200.000000    -2.900000 
7499520.000000    -2.600000 
7539840.000000    -2.600000 
7580160.000000    -2.600000 
7620480.000000    -2.600000 
7660800.000000    -2.600000 
7701120.000000    -2.600000 
7741440.000000    -2.900000 
7781760.000000    -2.900000 
7822080.000000    -2.900000 
7862400.000000    -2.900000 
7902720.000000    -2.900000 
7943040.000000    -2.900000 
7983360.000000    -2.900000 
8023680.000000    -2.600000 
8064000.000000    -2.600000 
8104320.000000    -2.600000 
8144640.000000    -2.600000 
8184960.000000    -2.600000 
8225280.000000    -2.600000 
8265600.000000    -2.900000 
8305920.000000    -2.900000 
8346240.000000    -2.900000 
8386560.000000    -2.900000 
8426880.000000    -2.900000 
8467200.000000    -2.900000 
8507520.000000    -2.900000 
8547840.000000    -2.600000 
8588160.000000    -2.600000 
8628480.000000    -2.600000 
8668800.000000    -2.600000 
8709120.000000    -2.600000 
8749440.000000    -2.600000 
8789760.000000    -2.900000 
8830080.000000    -2.900000 
8870400.000000    -2.900000 
8910720.000000    -2.900000 
8951040.000000    -2.900000 
8991360.000000    -2.900000 
9031680.000000    -2.900000 
9072000.000000    -2.600000 
9112320.000000    -2.600000 
9152640.000000    -2.600000 
9192960.000000    -2.600000 
9233280.000000    -2.600000 
9273600.000000    -2.600000 
9313920.000000    -2.900000 
9354240.000000    -2.900000 
9394560.000000    -2.900000 
9434880.000000    -2.900000 
9475200.000000    -2.900000 
9515520.000000    -2.900000 
9555840.000000    -2.900000 
9596160.000000    -2.600000 
9636480.000000    -2.600000 
9676800.000000    -2.600000 
9717120.000000    -2.600000 
9757440.000000    -2.600000 
9797760.000000    -2.600000 
9838080.000000    -2.900000 
9878400.000000    -2.900000 
9918720.000000    -2.900000 
9959040.000000    -2.900000 
9999360.000000    -2.900000 
10039680.000000    -2.900000 
10080000.000000    -2.900000 
10120320.000000    -2.600000 
10160640.000000    -2.600000 
10200960.000000    -2.600000 
10241280.000000    -2.600000 
10281600.000000    -2.600000 
10321920.000000    -2.600000 
10362240.000000    -2.600000 
10402560.000000    -2.900000 
10442880.000000    -2.900000 
10483200.000000    -2.900000 
10523520.000000    -2.900000 
10563840.000000    -2.900000 

[Forcing]
name       = KST-O-17810
function   = timeseries
timeInterpolation = linear
quantity   = time
unit       = minutes since 2010-01-01 00:00:00
quantity   = weir_crestLevel
unit       = m+NAP
    0.000000    -2.800000 
40320.000000    -2.800000 
80640.000000    -2.800000 
120960.000000    -2.450000 
161280.000000    -2.450000 
201600.000000    -2.450000 
241920.000000    -2.450000 
282240.000000    -2.450000 
322560.000000    -2.450000 
362880.000000    -2.450000 
403200.000000    -2.800000 
443520.000000    -2.800000 
483840.000000    -2.800000 
524160.000000    -2.800000 
564480.000000    -2.800000 
604800.000000    -2.800000 
645120.000000    -2.450000 
685440.000000    -2.450000 
725760.000000    -2.450000 
766080.000000    -2.450000 
806400.000000    -2.450000 
846720.000000    -2.450000 
887040.000000    -2.450000 
927360.000000    -2.800000 
967680.000000    -2.800000 
1008000.000000    -2.800000 
1048320.000000    -2.800000 
1088640.000000    -2.800000 
1128960.000000    -2.800000 
1169280.000000    -2.450000 
1209600.000000    -2.450000 
1249920.000000    -2.450000 
1290240.000000    -2.450000 
1330560.000000    -2.450000 
1370880.000000    -2.450000 
1411200.000000    -2.450000 
1451520.000000    -2.800000 
1491840.000000    -2.800000 
1532160.000000    -2.800000 
1572480.000000    -2.800000 
1612800.000000    -2.800000 
1653120.000000    -2.800000 
1693440.000000    -2.450000 
1733760.000000    -2.450000 
1774080.000000    -2.450000 
1814400.000000    -2.450000 
1854720.000000    -2.450000 
1895040.000000    -2.450000 
1935360.000000    -2.450000 
1975680.000000    -2.800000 
2016000.000000    -2.800000 
2056320.000000    -2.800000 
2096640.000000    -2.800000 
2136960.000000    -2.800000 
2177280.000000    -2.800000 
2217600.000000    -2.450000 
2257920.000000    -2.450000 
2298240.000000    -2.450000 
2338560.000000    -2.450000 
2378880.000000    -2.450000 
2419200.000000    -2.450000 
2459520.000000    -2.450000 
2499840.000000    -2.800000 
2540160.000000    -2.800000 
2580480.000000    -2.800000 
2620800.000000    -2.800000 
2661120.000000    -2.800000 
2701440.000000    -2.800000 
2741760.000000    -2.450000 
2782080.000000    -2.450000 
2822400.000000    -2.450000 
2862720.000000    -2.450000 
2903040.000000    -2.450000 
2943360.000000    -2.450000 
2983680.000000    -2.450000 
3024000.000000    -2.800000 
3064320.000000    -2.800000 
3104640.000000    -2.800000 
3144960.000000    -2.800000 
3185280.000000    -2.800000 
3225600.000000    -2.800000 
3265920.000000    -2.450000 
3306240.000000    -2.450000 
3346560.000000    -2.450000 
3386880.000000    -2.450000 
3427200.000000    -2.450000 
3467520.000000    -2.450000 
3507840.000000    -2.450000 
3548160.000000    -2.800000 
3588480.000000    -2.800000 
3628800.000000    -2.800000 
3669120.000000    -2.800000 
3709440.000000    -2.800000 
3749760.000000    -2.800000 
3790080.000000    -2.450000 
3830400.000000    -2.450000 
3870720.000000    -2.450000 
3911040.000000    -2.450000 
3951360.000000    -2.450000 
3991680.000000    -2.450000 
4032000.000000    -2.450000 
4072320.000000    -2.800000 
4112640.000000    -2.800000 
4152960.000000    -2.800000 
4193280.000000    -2.800000 
4233600.000000    -2.800000 
4273920.000000    -2.800000 
4314240.000000    -2.450000 
4354560.000000    -2.450000 
4394880.000000    -2.450000 
4435200.000000    -2.450000 
4475520.000000    -2.450000 
4515840.000000    -2.450000 
4556160.000000    -2.450000 
4596480.000000    -2.800000 
4636800.000000    -2.800000 
4677120.000000    -2.800000 
4717440.000000    -2.800000 
4757760.000000    -2.800000 
4798080.000000    -2.800000 
4838400.000000    -2.800000 
4878720.000000    -2.450000 
4919040.000000    -2.450000 
4959360.000000    -2.450000 
4999680.000000    -2.450000 
5040000.000000    -2.450000 
5080320.000000    -2.450000 
5120640.000000    -2.800000 
5160960.000000    -2.800000 
5201280.000000    -2.800000 
5241600.000000    -2.800000 
5281920.000000    -2.800000 
5322240.000000    -2.800000 
5362560.000000    -2.800000 
5402880.000000    -2.450000 
5443200.000000    -2.450000 
5483520.000000    -2.450000 
5523840.000000    -2.450000 
5564160.000000    -2.450000 
5604480.000000    -2.450000 
5644800.000000    -2.800000 
5685120.000000    -2.800000 
5725440.000000    -2.800000 
5765760.000000    -2.800000 
5806080.000000    -2.800000 
5846400.000000    -2.800000 
5886720.000000    -2.800000 
5927040.000000    -2.450000 
5967360.000000    -2.450000 
6007680.000000    -2.450000 
6048000.000000    -2.450000 
6088320.000000    -2.450000 
6128640.000000    -2.450000 
6168960.000000    -2.800000 
6209280.000000    -2.800000 
6249600.000000    -2.800000 
6289920.000000    -2.800000 
6330240.000000    -2.800000 
6370560.000000    -2.800000 
6410880.000000    -2.800000 
6451200.000000    -2.450000 
6491520.000000    -2.450000 
6531840.000000    -2.450000 
6572160.000000    -2.450000 
6612480.000000    -2.450000 
6652800.000000    -2.450000 
6693120.000000    -2.800000 
6733440.000000    -2.800000 
6773760.000000    -2.800000 
6814080.000000    -2.800000 
6854400.000000    -2.800000 
6894720.000000    -2.800000 
6935040.000000    -2.800000 
6975360.000000    -2.450000 
7015680.000000    -2.450000 
7056000.000000    -2.450000 
7096320.000000    -2.450000 
7136640.000000    -2.450000 
7176960.000000    -2.450000 
7217280.000000    -2.800000 
7257600.000000    -2.800000 
7297920.000000    -2.800000 
7338240.000000    -2.800000 
7378560.000000    -2.800000 
7418880.000000    -2.800000 
7459200.000000    -2.800000 
7499520.000000    -2.450000 
7539840.000000    -2.450000 
7580160.000000    -2.450000 
7620480.000000    -2.450000 
7660800.000000    -2.450000 
7701120.000000    -2.450000 
7741440.000000    -2.800000 
7781760.000000    -2.800000 
7822080.000000    -2.800000 
7862400.000000    -2.800000 
7902720.000000    -2.800000 
7943040.000000    -2.800000 
7983360.000000    -2.800000 
8023680.000000    -2.450000 
8064000.000000    -2.450000 
8104320.000000    -2.450000 
8144640.000000    -2.450000 
8184960.000000    -2.450000 
8225280.000000    -2.450000 
8265600.000000    -2.800000 
8305920.000000    -2.800000 
8346240.000000    -2.800000 
8386560.000000    -2.800000 
8426880.000000    -2.800000 
8467200.000000    -2.800000 
8507520.000000    -2.800000 
8547840.000000    -2.450000 
8588160.000000    -2.450000 
8628480.000000    -2.450000 
8668800.000000    -2.450000 
8709120.000000    -2.450000 
8749440.000000    -2.450000 
8789760.000000    -2.800000 
8830080.000000    -2.800000 
8870400.000000    -2.800000 
8910720.000000    -2.800000 
8951040.000000    -2.800000 
8991360.000000    -2.800000 
9031680.000000    -2.800000 
9072000.000000    -2.450000 
9112320.000000    -2.450000 
9152640.000000    -2.450000 
9192960.000000    -2.450000 
9233280.000000    -2.450000 
9273600.000000    -2.450000 
9313920.000000    -2.800000 
9354240.000000    -2.800000 
9394560.000000    -2.800000 
9434880.000000    -2.800000 
9475200.000000    -2.800000 
9515520.000000    -2.800000 
9555840.000000    -2.800000 
9596160.000000    -2.450000 
9636480.000000    -2.450000 
9676800.000000    -2.450000 
9717120.000000    -2.450000 
9757440.000000    -2.450000 
9797760.000000    -2.450000 
9838080.000000    -2.800000 
9878400.000000    -2.800000 
9918720.000000    -2.800000 
9959040.000000    -2.800000 
9999360.000000    -2.800000 
10039680.000000    -2.800000 
10080000.000000    -2.800000 
10120320.000000    -2.450000 
10160640.000000    -2.450000 
10200960.000000    -2.450000 
10241280.000000    -2.450000 
10281600.000000    -2.450000 
10321920.000000    -2.450000 
10362240.000000    -2.450000 
10402560.000000    -2.800000 
10442880.000000    -2.800000 
10483200.000000    -2.800000 
10523520.000000    -2.800000 
10563840.000000    -2.800000 

[Forcing]
name       = 258081_584320
function   = timeseries
timeInterpolation = linear
quantity   = time
unit       = minutes since 2000-01-01 00:00:00
quantity   = waterlevelbnd
unit       = m
    0.000000    -3.000000 
52596000.000000    -3.000000 
