# Generated with D-HyDAMO in delftd3fmpy v.1.1.2 on 2021-06-19 09:20:31.
# Tested and compatible with D-Flow FM 1.2.105.67228M, DIMRset 2.13.02.67836 and D-HYDRO suite 1D2D (Beta) 0.9.6.51435.
# 
[General]
fileVersion = 3.00
fileType = crossDef

[definition]
	id = KDU-O-01501
	type = circle
	thalweg = 0.0
	diameter = 0.6
	frictionId = Strickler_70.0

[definition]
	id = KDU-O-01497
	type = circle
	thalweg = 0.0
	diameter = 0.6
	frictionId = Strickler_70.0

[definition]
	id = KDU-O-01161
	type = circle
	thalweg = 0.0
	diameter = 0.5
	frictionId = Strickler_70.0

[definition]
	id = KDU-O-01168
	type = circle
	thalweg = 0.0
	diameter = 0.5
	frictionId = Strickler_70.0

[definition]
	id = KDU-O-01160
	type = circle
	thalweg = 0.0
	diameter = 0.5
	frictionId = Strickler_70.0

[definition]
	id = KDU-O-01377
	type = rectangle
	thalweg = 0.0
	height = 0.88
	width = 1.4
	closed = 1
	frictionid = Strickler_70.0

[definition]
	id = KDU-O-01469
	type = circle
	thalweg = 0.0
	diameter = 0.5
	frictionId = Strickler_70.0

[definition]
	id = KDU-O-01445
	type = circle
	thalweg = 0.0
	diameter = 0.5
	frictionId = Strickler_70.0

[definition]
	id = KDU-O-01475
	type = circle
	thalweg = 0.0
	diameter = 0.5
	frictionId = Strickler_70.0

[definition]
	id = KDU-O-01402
	type = rectangle
	thalweg = 0.0
	height = 0.95
	width = 1.5
	closed = 1
	frictionid = Strickler_70.0

[definition]
	id = KDU-O-01381
	type = circle
	thalweg = 0.0
	diameter = 0.5
	frictionId = Strickler_70.0

[definition]
	id = KDU-O-01461
	type = circle
	thalweg = 0.0
	diameter = 0.5
	frictionId = Strickler_70.0

[definition]
	id = KDU-O-01464
	type = circle
	thalweg = 0.0
	diameter = 0.5
	frictionId = Strickler_70.0

[definition]
	id = KDU-O-01397
	type = rectangle
	thalweg = 0.0
	height = 0.88
	width = 1.4
	closed = 1
	frictionid = Strickler_70.0

[definition]
	id = KDU-O-01391
	type = circle
	thalweg = 0.0
	diameter = 0.5
	frictionId = Strickler_70.0

[definition]
	id = KDU-O-01404
	type = rectangle
	thalweg = 0.0
	height = 1.01
	width = 1.6
	closed = 1
	frictionid = Strickler_70.0

[definition]
	id = KDU-O-01447
	type = circle
	thalweg = 0.0
	diameter = 0.6
	frictionId = Strickler_70.0

[definition]
	id = KDU-O-01388
	type = circle
	thalweg = 0.0
	diameter = 0.5
	frictionId = Strickler_70.0

[definition]
	id = KDU-O-01473
	type = circle
	thalweg = 0.0
	diameter = 0.5
	frictionId = Strickler_70.0

[definition]
	id = KDU-O-03606
	type = circle
	thalweg = 0.0
	diameter = 0.5
	frictionId = Strickler_70.0

[definition]
	id = KDU-O-01405
	type = circle
	thalweg = 0.0
	diameter = 0.5
	frictionId = Strickler_70.0

[definition]
	id = KDU-O-01442
	type = circle
	thalweg = 0.0
	diameter = 0.6
	frictionId = Strickler_70.0

[definition]
	id = KDU-O-01443
	type = circle
	thalweg = 0.0
	diameter = 0.6
	frictionId = Strickler_70.0

[definition]
	id = KDU-O-01449
	type = circle
	thalweg = 0.0
	diameter = 0.3
	frictionId = Strickler_70.0

[definition]
	id = KDU-O-01440
	type = circle
	thalweg = 0.0
	diameter = 0.6
	frictionId = Strickler_70.0

[definition]
	id = KDU-O-01448
	type = circle
	thalweg = 0.0
	diameter = 0.6
	frictionId = Strickler_70.0

[definition]
	id = KDU-O-01463
	type = circle
	thalweg = 0.0
	diameter = 0.5
	frictionId = Strickler_70.0

[definition]
	id = KDU-O-01466
	type = circle
	thalweg = 0.0
	diameter = 0.5
	frictionId = Strickler_70.0

[definition]
	id = KDU-O-01470
	type = circle
	thalweg = 0.0
	diameter = 0.5
	frictionId = Strickler_70.0

[definition]
	id = KDU-O-01474
	type = circle
	thalweg = 0.0
	diameter = 0.5
	frictionId = Strickler_70.0

[definition]
	id = KDU-O-01400
	type = circle
	thalweg = 0.0
	diameter = 0.8
	frictionId = Strickler_70.0

[definition]
	id = KDU-O-01410
	type = circle
	thalweg = 0.0
	diameter = 0.5
	frictionId = Strickler_70.0

[definition]
	id = KDU-O-01414
	type = circle
	thalweg = 0.0
	diameter = 1.0
	frictionId = Strickler_70.0

[definition]
	id = KDU-O-03263
	type = circle
	thalweg = 0.0
	diameter = 0.16
	frictionId = Strickler_70.0

[definition]
	id = KDU-O-01375
	type = circle
	thalweg = 0.0
	diameter = 0.5
	frictionId = Strickler_70.0

[definition]
	id = KDU-O-01376
	type = circle
	thalweg = 0.0
	diameter = 0.5
	frictionId = Strickler_70.0

[definition]
	id = KDU-O-01380
	type = circle
	thalweg = 0.0
	diameter = 0.3
	frictionId = Strickler_70.0

[definition]
	id = KDU-O-01390
	type = circle
	thalweg = 0.0
	diameter = 0.3
	frictionId = Strickler_70.0

[definition]
	id = KDU-O-01393
	type = circle
	thalweg = 0.0
	diameter = 0.7
	frictionId = Strickler_70.0

[definition]
	id = KDU-O-01394
	type = circle
	thalweg = 0.0
	diameter = 0.7
	frictionId = Strickler_70.0

[definition]
	id = KDU-O-01396
	type = rectangle
	thalweg = 0.0
	height = 0.88
	width = 1.4
	closed = 1
	frictionid = Strickler_70.0

[definition]
	id = KDU-O-01399
	type = circle
	thalweg = 0.0
	diameter = 0.7
	frictionId = Strickler_70.0

[definition]
	id = KDU-O-01401
	type = rectangle
	thalweg = 0.0
	height = 0.95
	width = 1.5
	closed = 1
	frictionid = Strickler_70.0

[definition]
	id = KDU-O-01379
	type = circle
	thalweg = 0.0
	diameter = 0.5
	frictionId = Strickler_70.0

[definition]
	id = KDU-O-01403
	type = rectangle
	thalweg = 0.0
	height = 0.95
	width = 1.5
	closed = 1
	frictionid = Strickler_70.0

[definition]
	id = KDU-O-01406
	type = rectangle
	thalweg = 0.0
	height = 1.01
	width = 1.6
	closed = 1
	frictionid = Strickler_70.0

[definition]
	id = KDU-O-01407
	type = rectangle
	thalweg = 0.0
	height = 1.01
	width = 1.6
	closed = 1
	frictionid = Strickler_70.0

[definition]
	id = KDU-O-01408
	type = rectangle
	thalweg = 0.0
	height = 1.01
	width = 1.6
	closed = 1
	frictionid = Strickler_70.0

[definition]
	id = KDU-O-01409
	type = rectangle
	thalweg = 0.0
	height = 1.01
	width = 1.6
	closed = 1
	frictionid = Strickler_70.0

[definition]
	id = KDU-O-01564
	type = circle
	thalweg = 0.0
	diameter = 0.6
	frictionId = Strickler_70.0

[definition]
	id = KDU-O-01572
	type = circle
	thalweg = 0.0
	diameter = 0.5
	frictionId = Strickler_70.0

[definition]
	id = KDU-O-01384
	type = circle
	thalweg = 0.0
	diameter = 0.5
	frictionId = Strickler_70.0

[definition]
	id = KDU-O-01395
	type = circle
	thalweg = 0.0
	diameter = 0.5
	frictionId = Strickler_70.0

[definition]
	id = KDU-O-01413
	type = circle
	thalweg = 0.0
	diameter = 1.0
	frictionId = Strickler_70.0

[definition]
	id = KDU-O-01444
	type = circle
	thalweg = 0.0
	diameter = 0.6
	frictionId = Strickler_70.0

[definition]
	id = KDU-O-01418
	type = rectangle
	thalweg = 0.0
	height = 1.0
	width = 2.0
	closed = 1
	frictionid = Strickler_70.0

[definition]
	id = KDU-O-02667
	type = circle
	thalweg = 0.0
	diameter = 1.0
	frictionId = Strickler_70.0

[definition]
	id = KDU-O-01502
	type = circle
	thalweg = 0.0
	diameter = 0.6
	frictionId = Strickler_70.0

[definition]
	id = KDU-O-01505
	type = rectangle
	thalweg = 0.0
	height = 0.9
	width = 1.3
	closed = 1
	frictionid = Strickler_70.0

[definition]
	id = KDU-O-01506
	type = circle
	thalweg = 0.0
	diameter = 0.3
	frictionId = Strickler_70.0

[definition]
	id = KDU-O-01503
	type = circle
	thalweg = 0.0
	diameter = 0.5
	frictionId = Strickler_70.0

[definition]
	id = KDU-O-01301
	type = circle
	thalweg = 0.0
	diameter = 0.5
	frictionId = Strickler_70.0

[definition]
	id = KDU-O-01156
	type = circle
	thalweg = 0.0
	diameter = 0.5
	frictionId = Strickler_70.0

[definition]
	id = KDU-O-03163
	type = rectangle
	thalweg = 0.0
	height = 2.77
	width = 4.52
	closed = 1
	frictionid = Strickler_70.0

[definition]
	id = KDU-O-01563
	type = circle
	thalweg = 0.0
	diameter = 0.5
	frictionId = Strickler_70.0

[definition]
	id = KDU-O-01305
	type = circle
	thalweg = 0.0
	diameter = 0.5
	frictionId = Strickler_70.0

[definition]
	id = KDU-O-01159
	type = circle
	thalweg = 0.0
	diameter = 1.0
	frictionId = Strickler_70.0

[definition]
	id = KDU-O-01166
	type = circle
	thalweg = 0.0
	diameter = 0.5
	frictionId = Strickler_70.0

[definition]
	id = KDU-O-01170
	type = circle
	thalweg = 0.0
	diameter = 0.6
	frictionId = Strickler_70.0

[definition]
	id = KDU-O-01280
	type = circle
	thalweg = 0.0
	diameter = 0.7
	frictionId = Strickler_70.0

[definition]
	id = KDU-O-01304
	type = circle
	thalweg = 0.0
	diameter = 0.5
	frictionId = Strickler_70.0

[definition]
	id = KDU-O-01308
	type = circle
	thalweg = 0.0
	diameter = 0.8
	frictionId = Strickler_70.0

[definition]
	id = KDU-O-01248
	type = circle
	thalweg = 0.0
	diameter = 0.6
	frictionId = Strickler_70.0

[definition]
	id = KDU-O-01281
	type = rectangle
	thalweg = 0.0
	height = 1.0
	width = 2.4999999999999996
	closed = 1
	frictionid = Strickler_70.0

[definition]
	id = KDU-O-01288
	type = circle
	thalweg = 0.0
	diameter = 0.6
	frictionId = Strickler_70.0

[definition]
	id = KDU-O-01289
	type = circle
	thalweg = 0.0
	diameter = 0.6
	frictionId = Strickler_70.0

[definition]
	id = KDU-O-01292
	type = rectangle
	thalweg = 0.0
	height = 1.0
	width = 2.4999999999999996
	closed = 1
	frictionid = Strickler_70.0

[definition]
	id = KDU-O-00347
	type = circle
	thalweg = 0.0
	diameter = 0.5
	frictionId = Strickler_70.0

[definition]
	id = KDU-O-00349
	type = circle
	thalweg = 0.0
	diameter = 0.5
	frictionId = Strickler_70.0

[definition]
	id = KDU-O-01296
	type = circle
	thalweg = 0.0
	diameter = 1.2499999999999998
	frictionId = Strickler_70.0

[definition]
	id = KDU-O-01282
	type = rectangle
	thalweg = 0.0
	height = 1.0
	width = 2.4999999999999996
	closed = 1
	frictionid = Strickler_70.0

[definition]
	id = KDU-O-03159
	type = circle
	thalweg = 0.0
	diameter = 0.5
	frictionId = Strickler_70.0

[definition]
	id = KDU-O-01124
	type = circle
	thalweg = 0.0
	diameter = 0.5
	frictionId = Strickler_70.0

[definition]
	id = KDU-O-01122
	type = circle
	thalweg = 0.0
	diameter = 0.5
	frictionId = Strickler_70.0

[definition]
	id = KDU-O-01126
	type = circle
	thalweg = 0.0
	diameter = 0.5
	frictionId = Strickler_70.0

[definition]
	id = KDU-O-01112
	type = circle
	thalweg = 0.0
	diameter = 1.0
	frictionId = Strickler_70.0

[definition]
	id = KDU-O-00350
	type = circle
	thalweg = 0.0
	diameter = 0.5
	frictionId = Strickler_70.0

[definition]
	id = KDU-O-00351
	type = rectangle
	thalweg = 0.0
	height = 1.46
	width = 1.8499999999999999
	closed = 1
	frictionid = Strickler_70.0

[definition]
	id = KDU-O-01172
	type = circle
	thalweg = 0.0
	diameter = 0.5
	frictionId = Strickler_70.0

[definition]
	id = KDU-O-01155
	type = circle
	thalweg = 0.0
	diameter = 0.7
	frictionId = Strickler_70.0

[definition]
	id = KDU-O-01171
	type = circle
	thalweg = 0.0
	diameter = 0.5
	frictionId = Strickler_70.0

[definition]
	id = KDU-O-01173
	type = circle
	thalweg = 0.0
	diameter = 0.6
	frictionId = Strickler_70.0

[definition]
	id = KDU-O-01176
	type = circle
	thalweg = 0.0
	diameter = 0.7
	frictionId = Strickler_70.0

[definition]
	id = KDU-O-01177
	type = circle
	thalweg = 0.0
	diameter = 0.7
	frictionId = Strickler_70.0

[definition]
	id = KDU-O-01174
	type = circle
	thalweg = 0.0
	diameter = 0.6
	frictionId = Strickler_70.0

[definition]
	id = KDU-O-01369
	type = circle
	thalweg = 0.0
	diameter = 0.5
	frictionId = Strickler_70.0

[definition]
	id = KDU-O-01363
	type = circle
	thalweg = 0.0
	diameter = 0.5
	frictionId = Strickler_70.0

[definition]
	id = KDU-O-01370
	type = circle
	thalweg = 0.0
	diameter = 0.5
	frictionId = Strickler_70.0

[definition]
	id = KDU-O-01353
	type = circle
	thalweg = 0.0
	diameter = 0.5
	frictionId = Strickler_70.0

[definition]
	id = KDU-O-00140
	type = circle
	thalweg = 0.0
	diameter = 0.5
	frictionId = Strickler_70.0

[definition]
	id = KDU-O-00546
	type = circle
	thalweg = 0.0
	diameter = 1.0
	frictionId = Strickler_70.0

[definition]
	id = KDU-O-01576
	type = circle
	thalweg = 0.0
	diameter = 1.0
	frictionId = Strickler_70.0

[definition]
	id = KDU-O-01351
	type = circle
	thalweg = 0.0
	diameter = 0.5
	frictionId = Strickler_70.0

[definition]
	id = KDU-O-01354
	type = circle
	thalweg = 0.0
	diameter = 0.5
	frictionId = Strickler_70.0

[definition]
	id = KDU-O-01355
	type = circle
	thalweg = 0.0
	diameter = 0.5
	frictionId = Strickler_70.0

[definition]
	id = KDU-O-01365
	type = circle
	thalweg = 0.0
	diameter = 0.5
	frictionId = Strickler_70.0

[definition]
	id = KDU-O-01356
	type = circle
	thalweg = 0.0
	diameter = 0.5
	frictionId = Strickler_70.0

[definition]
	id = KDU-O-01357
	type = circle
	thalweg = 0.0
	diameter = 0.6
	frictionId = Strickler_70.0

[definition]
	id = KDU-O-01367
	type = circle
	thalweg = 0.0
	diameter = 1.0
	frictionId = Strickler_70.0

[definition]
	id = KDU-O-00549
	type = circle
	thalweg = 0.0
	diameter = 0.3
	frictionId = Strickler_70.0

[definition]
	id = KDU-O-01557
	type = circle
	thalweg = 0.0
	diameter = 0.5
	frictionId = Strickler_70.0

[definition]
	id = KDU-O-01544
	type = circle
	thalweg = 0.0
	diameter = 0.5
	frictionId = Strickler_70.0

[definition]
	id = KDU-O-01558
	type = circle
	thalweg = 0.0
	diameter = 0.5
	frictionId = Strickler_70.0

[definition]
	id = KDU-O-01545
	type = circle
	thalweg = 0.0
	diameter = 0.6
	frictionId = Strickler_70.0

[definition]
	id = KDU-O-01546
	type = circle
	thalweg = 0.0
	diameter = 0.3
	frictionId = Strickler_70.0

[definition]
	id = KDU-O-01547
	type = circle
	thalweg = 0.0
	diameter = 0.7
	frictionId = Strickler_70.0

[definition]
	id = KDU-O-01559
	type = circle
	thalweg = 0.0
	diameter = 0.7
	frictionId = Strickler_70.0

[definition]
	id = KDU-O-01489
	type = circle
	thalweg = 0.0
	diameter = 0.5
	frictionId = Strickler_70.0

[definition]
	id = KDU-O-01484
	type = circle
	thalweg = 0.0
	diameter = 0.3
	frictionId = Strickler_70.0

[definition]
	id = KDU-O-01486
	type = circle
	thalweg = 0.0
	diameter = 0.5
	frictionId = Strickler_70.0

[definition]
	id = KDU-O-01483
	type = circle
	thalweg = 0.0
	diameter = 0.5
	frictionId = Strickler_70.0

[definition]
	id = KDU-O-01488
	type = circle
	thalweg = 0.0
	diameter = 0.5
	frictionId = Strickler_70.0

[definition]
	id = KDU-O-01482
	type = circle
	thalweg = 0.0
	diameter = 0.5
	frictionId = Strickler_70.0

[definition]
	id = KDU-O-01487
	type = circle
	thalweg = 0.0
	diameter = 0.6
	frictionId = Strickler_70.0

[definition]
	id = KDU-O-01492
	type = circle
	thalweg = 0.0
	diameter = 0.5
	frictionId = Strickler_70.0

[definition]
	id = KDU-O-00727
	type = circle
	thalweg = 0.0
	diameter = 1.2499999999999998
	frictionId = Strickler_70.0

[definition]
	id = KDU-O-00729
	type = circle
	thalweg = 0.0
	diameter = 1.5
	frictionId = Strickler_70.0

[definition]
	id = KDU-O-02468
	type = circle
	thalweg = 0.0
	diameter = 1.5
	frictionId = Strickler_70.0

[definition]
	id = KDU-O-01129
	type = rectangle
	thalweg = 0.0
	height = 1.5
	width = 2.06
	closed = 1
	frictionid = Strickler_70.0

[definition]
	id = KDU-O-00728
	type = circle
	thalweg = 0.0
	diameter = 0.7
	frictionId = Strickler_70.0

[definition]
	id = KDU-O-00142
	type = circle
	thalweg = 0.0
	diameter = 0.5
	frictionId = Strickler_70.0

[definition]
	id = KDU-O-03992
	type = rectangle
	thalweg = 0.0
	height = 0.5
	width = 0.5
	closed = 1
	frictionid = Strickler_70.0

[definition]
	id = KDU-O-01151
	type = circle
	thalweg = 0.0
	diameter = 0.5
	frictionId = Strickler_70.0

[definition]
	id = KDU-O-01180
	type = circle
	thalweg = 0.0
	diameter = 0.5
	frictionId = Strickler_70.0

[definition]
	id = KDU-O-01148
	type = circle
	thalweg = 0.0
	diameter = 0.5
	frictionId = Strickler_70.0

[definition]
	id = KDU-O-03990
	type = rectangle
	thalweg = 0.0
	height = 0.5
	width = 0.5
	closed = 1
	frictionid = Strickler_70.0

[definition]
	id = KDU-O-01127
	type = circle
	thalweg = 0.0
	diameter = 0.5
	frictionId = Strickler_70.0

[definition]
	id = KDU-O-01140
	type = circle
	thalweg = 0.0
	diameter = 1.2499999999999998
	frictionId = Strickler_70.0

[definition]
	id = KDU-O-01141
	type = circle
	thalweg = 0.0
	diameter = 2.4999999999999996
	frictionId = Strickler_70.0

[definition]
	id = KDU-O-01153
	type = circle
	thalweg = 0.0
	diameter = 1.0
	frictionId = Strickler_70.0

[definition]
	id = KDU-O-01187
	type = circle
	thalweg = 0.0
	diameter = 0.6
	frictionId = Strickler_70.0

[definition]
	id = KDU-O-01143
	type = circle
	thalweg = 0.0
	diameter = 1.5
	frictionId = Strickler_70.0

[definition]
	id = KDU-O-01149
	type = circle
	thalweg = 0.0
	diameter = 0.6
	frictionId = Strickler_70.0

[definition]
	id = KDU-O-01152
	type = circle
	thalweg = 0.0
	diameter = 0.5
	frictionId = Strickler_70.0

[definition]
	id = KDU-O-01193
	type = circle
	thalweg = 0.0
	diameter = 0.6
	frictionId = Strickler_70.0

[definition]
	id = KDU-O-01138
	type = rectangle
	thalweg = 0.0
	height = 1.2499999999999998
	width = 2.0
	closed = 1
	frictionid = Strickler_70.0

[definition]
	id = KDU-O-02469
	type = rectangle
	thalweg = 0.0
	height = 1.06
	width = 1.6
	closed = 1
	frictionid = Strickler_70.0

[definition]
	id = KDU-O-01562
	type = rectangle
	thalweg = 0.0
	height = 1.5
	width = 2.4999999999999996
	closed = 1
	frictionid = Strickler_70.0

[definition]
	id = KDU-O-02446
	type = rectangle
	thalweg = 0.0
	height = 1.2499999999999998
	width = 1.8
	closed = 1
	frictionid = Strickler_70.0

[definition]
	id = KDU-O-02447
	type = circle
	thalweg = 0.0
	diameter = 0.3
	frictionId = Strickler_70.0

[definition]
	id = KDU-O-01609
	type = rectangle
	thalweg = 0.0
	height = 1.26
	width = 2.0
	closed = 1
	frictionid = Strickler_70.0

[definition]
	id = KDU-O-01114
	type = circle
	thalweg = 0.0
	diameter = 1.0
	frictionId = Strickler_70.0

[definition]
	id = KDU-O-01182
	type = circle
	thalweg = 0.0
	diameter = 0.6
	frictionId = Strickler_70.0

[definition]
	id = KDU-O-01570
	type = circle
	thalweg = 0.0
	diameter = 0.3
	frictionId = Strickler_70.0

[definition]
	id = KDU-O-01530
	type = circle
	thalweg = 0.0
	diameter = 0.5
	frictionId = Strickler_70.0

[definition]
	id = KDU-O-01533
	type = circle
	thalweg = 0.0
	diameter = 0.6
	frictionId = Strickler_70.0

[definition]
	id = KDU-O-01600
	type = circle
	thalweg = 0.0
	diameter = 0.5
	frictionId = Strickler_70.0

[definition]
	id = KDU-O-03600
	type = circle
	thalweg = 0.0
	diameter = 0.6
	frictionId = Strickler_70.0

[definition]
	id = KDU-O-01532
	type = circle
	thalweg = 0.0
	diameter = 0.5
	frictionId = Strickler_70.0

[definition]
	id = KDU-O-01531
	type = circle
	thalweg = 0.0
	diameter = 0.6
	frictionId = Strickler_70.0

[definition]
	id = KDU-O-01457
	type = circle
	thalweg = 0.0
	diameter = 0.5
	frictionId = Strickler_70.0

[definition]
	id = KDU-O-01523
	type = circle
	thalweg = 0.0
	diameter = 0.5
	frictionId = Strickler_70.0

[definition]
	id = KDU-O-01517
	type = circle
	thalweg = 0.0
	diameter = 0.5
	frictionId = Strickler_70.0

[definition]
	id = KDU-O-01481
	type = circle
	thalweg = 0.0
	diameter = 0.5
	frictionId = Strickler_70.0

[definition]
	id = KDU-O-01434
	type = circle
	thalweg = 0.0
	diameter = 0.5
	frictionId = Strickler_70.0

[definition]
	id = KDU-O-01565
	type = circle
	thalweg = 0.0
	diameter = 0.5
	frictionId = Strickler_70.0

[definition]
	id = KDU-O-01539
	type = circle
	thalweg = 0.0
	diameter = 1.0
	frictionId = Strickler_70.0

[definition]
	id = KDU-O-01552
	type = circle
	thalweg = 0.0
	diameter = 1.0
	frictionId = Strickler_70.0

[definition]
	id = KDU-O-01451
	type = rectangle
	thalweg = 0.0
	height = 1.0
	width = 2.4999999999999996
	closed = 1
	frictionid = Strickler_70.0

[definition]
	id = KDU-O-01455
	type = circle
	thalweg = 0.0
	diameter = 0.8
	frictionId = Strickler_70.0

[definition]
	id = KDU-O-01510
	type = circle
	thalweg = 0.0
	diameter = 1.2499999999999998
	frictionId = Strickler_70.0

[definition]
	id = KDU-O-01521
	type = rectangle
	thalweg = 0.0
	height = 1.5
	width = 2.4999999999999996
	closed = 1
	frictionid = Strickler_70.0

[definition]
	id = KDU-O-01479
	type = circle
	thalweg = 0.0
	diameter = 0.5
	frictionId = Strickler_70.0

[definition]
	id = KDU-O-01452
	type = circle
	thalweg = 0.0
	diameter = 0.6
	frictionId = Strickler_70.0

[definition]
	id = KDU-O-01456
	type = circle
	thalweg = 0.0
	diameter = 0.7
	frictionId = Strickler_70.0

[definition]
	id = KDU-O-01535
	type = circle
	thalweg = 0.0
	diameter = 0.5
	frictionId = Strickler_70.0

[definition]
	id = KDU-O-01421
	type = rectangle
	thalweg = 0.0
	height = 1.0
	width = 2.4999999999999996
	closed = 1
	frictionid = Strickler_70.0

[definition]
	id = KDU-O-01431
	type = circle
	thalweg = 0.0
	diameter = 0.9
	frictionId = Strickler_70.0

[definition]
	id = KDU-O-01437
	type = circle
	thalweg = 0.0
	diameter = 0.6
	frictionId = Strickler_70.0

[definition]
	id = KDU-O-00248
	type = circle
	thalweg = 0.0
	diameter = 0.18
	frictionId = Strickler_70.0

[definition]
	id = KDU-O-01522
	type = circle
	thalweg = 0.0
	diameter = 0.5
	frictionId = Strickler_70.0

[definition]
	id = KDU-O-01478
	type = circle
	thalweg = 0.0
	diameter = 0.5
	frictionId = Strickler_70.0

[definition]
	id = KDU-O-01480
	type = circle
	thalweg = 0.0
	diameter = 0.5
	frictionId = Strickler_70.0

[definition]
	id = KDU-O-01538
	type = circle
	thalweg = 0.0
	diameter = 0.7
	frictionId = Strickler_70.0

[definition]
	id = KDU-O-01543
	type = circle
	thalweg = 0.0
	diameter = 1.0
	frictionId = Strickler_70.0

[definition]
	id = KDU-O-02521
	type = circle
	thalweg = 0.0
	diameter = 0.7
	frictionId = Strickler_70.0

[definition]
	id = KDU-O-01458
	type = rectangle
	thalweg = 0.0
	height = 1.0
	width = 2.4999999999999996
	closed = 1
	frictionid = Strickler_70.0

[definition]
	id = KDU-O-01513
	type = rectangle
	thalweg = 0.0
	height = 0.95
	width = 1.5
	closed = 1
	frictionid = Strickler_70.0

[definition]
	id = KDU-O-01518
	type = rectangle
	thalweg = 0.0
	height = 1.5
	width = 2.4999999999999996
	closed = 1
	frictionid = Strickler_70.0

[definition]
	id = KDU-O-00249
	type = circle
	thalweg = 0.0
	diameter = 0.18
	frictionId = Strickler_70.0

[definition]
	id = KDU-O-01541
	type = circle
	thalweg = 0.0
	diameter = 1.0
	frictionId = Strickler_70.0

[definition]
	id = KSY-O-00011
	type = rectangle
	thalweg = 0.0
	height = 0.5
	width = 1.25
	closed = 1
	frictionid = Strickler_70.0

[definition]
	id = KSY-O-00006
	type = rectangle
	thalweg = 0.0
	height = 1.2
	width = 1.5
	closed = 1
	frictionid = Strickler_70.0

[definition]
	id = 20010612-5
	type = yz
	thalweg = 5.626
	yzCount = 13
	yCoordinates =  0.000  1.784  2.442  2.509  3.076  4.144  6.104  7.664  8.749  9.013  9.640 10.808 11.568
	zCoordinates = -2.150 -3.200 -3.580 -3.610 -3.940 -4.590 -4.930 -4.370 -3.780 -3.610 -3.240 -2.570 -2.220
	sectionCount = 1
	frictionIds = Strickler_35.0
	frictionPositions =  0.000 11.568

[definition]
	id = 20030207-1
	type = yz
	thalweg = 1.946
	yzCount = 11
	yCoordinates =  0.000  0.400  1.562  1.685  1.816  1.946  2.158  2.278  2.596  3.728  4.011
	zCoordinates =  1.160  0.910 -0.030 -0.140 -0.230 -0.250 -0.220 -0.120  0.080  0.850  0.960
	sectionCount = 1
	frictionIds = Strickler_35.0
	frictionPositions =  0.000  4.011

[definition]
	id = 20030207-2
	type = yz
	thalweg = 3.294
	yzCount = 13
	yCoordinates =  0.000  0.540  1.855  2.116  2.408  2.835  3.295  3.556  3.907  4.126  4.498  5.571  6.022
	zCoordinates =  0.870  0.470 -0.630 -0.930 -1.220 -1.260 -1.320 -1.310 -1.160 -0.900 -0.650  0.360  0.670
	sectionCount = 1
	frictionIds = Strickler_35.0
	frictionPositions =  0.000  6.022

[definition]
	id = 20030207-3
	type = yz
	thalweg = 3.207
	yzCount = 13
	yCoordinates =  0.000  0.262  2.163  2.403  2.580  2.767  3.077  3.677  3.797  3.938  4.367  5.552  5.983
	zCoordinates =  0.620  0.400 -1.050 -1.220 -1.490 -1.580 -1.560 -1.510 -1.460 -1.220 -0.900 -0.140  0.160
	sectionCount = 1
	frictionIds = Strickler_35.0
	frictionPositions =  0.000  5.983

[definition]
	id = 20030211-2
	type = yz
	thalweg = 2.744
	yzCount = 13
	yCoordinates =  0.000  0.412  1.583  1.767  1.959  2.399  2.839  3.209  3.488  3.643  3.833  4.673  5.023
	zCoordinates =  0.110 -0.160 -1.070 -1.340 -1.560 -1.740 -1.790 -1.710 -1.570 -1.310 -1.180 -0.560 -0.320
	sectionCount = 1
	frictionIds = Strickler_35.0
	frictionPositions =  0.000  5.023

[definition]
	id = 20030211-3
	type = yz
	thalweg = 3.584
	yzCount = 13
	yCoordinates =  0.000  0.511  2.605  2.733  2.964  3.357  3.607  3.913  4.271  4.331  4.734  6.486  7.037
	zCoordinates =  0.420  0.080 -1.470 -1.560 -1.830 -1.820 -1.810 -1.750 -1.720 -1.590 -1.200  0.010  0.370
	sectionCount = 1
	frictionIds = Strickler_35.0
	frictionPositions =  0.000  7.037

[definition]
	id = 20030211-4
	type = yz
	thalweg = 4.573
	yzCount = 16
	yCoordinates =  0.000  0.426  1.436  1.797  2.277  2.591  2.741  3.641  4.606  5.876  6.665  7.226  7.708  7.847  8.908  9.307
	zCoordinates = -0.110 -0.310 -1.140 -1.620 -1.750 -1.790 -2.160 -2.430 -2.180 -2.310 -2.040 -1.840 -1.750 -1.390 -0.400 -0.110
	sectionCount = 1
	frictionIds = Strickler_35.0
	frictionPositions =  0.000  9.307

[definition]
	id = 20030211-5
	type = yz
	thalweg = 3.825
	yzCount = 16
	yCoordinates =  0.000  0.326  0.876  1.061  1.303  1.733  2.350  3.206  4.642  5.322  5.943  6.298  6.681  6.925  7.607  7.927
	zCoordinates = -0.730 -0.880 -1.270 -1.520 -1.770 -1.840 -2.300 -2.620 -2.680 -2.570 -2.120 -1.850 -1.740 -1.550 -0.850 -0.660
	sectionCount = 1
	frictionIds = Strickler_35.0
	frictionPositions =  0.000  7.927

[definition]
	id = 20030211-6
	type = yz
	thalweg = 3.792
	yzCount = 17
	yCoordinates =  0.000  0.631  1.752  2.712  2.864  3.124  3.294  3.519  3.712  3.947  4.161  4.403  4.463  4.945  5.357  7.127  7.600
	zCoordinates = -0.020 -0.300 -0.850 -1.300 -1.500 -1.630 -1.640 -1.780 -1.810 -1.820 -1.780 -1.750 -1.640 -1.530 -1.230 -0.320 -0.140
	sectionCount = 1
	frictionIds = Strickler_35.0
	frictionPositions =  0.000  7.600

[definition]
	id = 20030211-7
	type = yz
	thalweg = 2.978
	yzCount = 14
	yCoordinates =  0.000  1.012  1.472  1.681  1.883  2.415  2.510  2.940  3.353  3.685  4.155  4.448  6.059  6.379
	zCoordinates = -0.440 -0.980 -1.190 -1.330 -1.520 -1.680 -1.830 -1.840 -1.820 -1.680 -1.520 -1.270 -0.550 -0.380
	sectionCount = 1
	frictionIds = Strickler_35.0
	frictionPositions =  0.000  6.379

[definition]
	id = 20030211-8
	type = yz
	thalweg = 2.258
	yzCount = 11
	yCoordinates =  0.000  0.294  1.321  1.696  2.006  2.535  3.065  3.303  3.655  4.415  5.066
	zCoordinates = -0.790 -0.970 -1.790 -2.060 -2.260 -2.320 -2.270 -2.040 -1.840 -1.350 -1.000
	sectionCount = 1
	frictionIds = Strickler_35.0
	frictionPositions =  0.000  5.066

[definition]
	id = 20030212-3
	type = yz
	thalweg = 2.748
	yzCount = 15
	yCoordinates =  0.000  0.490  0.932  1.082  1.490  1.847  2.268  2.686  3.138  3.642  3.923  4.444  4.606  5.217  5.612
	zCoordinates = -0.260 -0.580 -0.900 -1.240 -1.320 -1.580 -1.780 -1.830 -1.700 -1.560 -1.320 -1.280 -0.970 -0.430 -0.250
	sectionCount = 1
	frictionIds = Strickler_35.0
	frictionPositions =  0.000  5.612

[definition]
	id = 20030212-4
	type = yz
	thalweg = 4.056
	yzCount = 15
	yCoordinates =  0.000  0.420  0.961  1.318  1.516  1.898  3.049  4.029  5.561  6.531  6.958  7.159  7.312  8.066  8.329
	zCoordinates = -0.050 -0.320 -0.740 -1.240 -1.330 -1.520 -1.850 -1.930 -1.790 -1.530 -1.330 -1.240 -0.880 -0.250 -0.090
	sectionCount = 1
	frictionIds = Strickler_35.0
	frictionPositions =  0.000  8.329

[definition]
	id = 20030212-5
	type = yz
	thalweg = 3.497
	yzCount = 14
	yCoordinates =  0.000  0.506  1.180  1.631  2.368  2.676  3.822  4.365  4.883  5.146  5.370  5.909  6.903  7.489
	zCoordinates =  0.530  0.150 -0.680 -1.030 -1.300 -1.660 -1.980 -1.980 -1.860 -1.300 -1.050 -0.530 -0.100  0.280
	sectionCount = 1
	frictionIds = Strickler_35.0
	frictionPositions =  0.000  7.489

[definition]
	id = 20030212-6
	type = yz
	thalweg = 2.752
	yzCount = 15
	yCoordinates =  0.000  0.255  0.965  1.291  1.439  1.720  2.391  2.931  3.344  3.784  4.031  4.373  4.634  5.037  5.528
	zCoordinates = -0.030 -0.210 -0.790 -1.210 -1.320 -1.480 -1.670 -1.640 -1.580 -1.440 -1.330 -1.190 -0.840 -0.450 -0.290
	sectionCount = 1
	frictionIds = Strickler_35.0
	frictionPositions =  0.000  5.528

[definition]
	id = 20030217-1
	type = yz
	thalweg = 2.982
	yzCount = 15
	yCoordinates =  0.000  0.290  1.641  1.853  2.154  2.407  2.792  3.032  3.159  3.363  3.443  3.710  3.990  5.215  5.583
	zCoordinates =  0.150 -0.030 -1.090 -1.350 -1.440 -1.580 -1.600 -1.610 -1.600 -1.580 -1.450 -1.350 -0.940  0.020  0.170
	sectionCount = 1
	frictionIds = Strickler_35.0
	frictionPositions =  0.000  5.583

[definition]
	id = 20030217-2
	type = yz
	thalweg = 3.683
	yzCount = 14
	yCoordinates =  0.000  0.162  0.502  1.256  1.398  1.680  2.624  3.487  4.477  5.510  5.921  6.322  7.288  7.585
	zCoordinates = -0.010 -0.150 -0.440 -1.060 -1.330 -1.520 -2.110 -2.210 -2.190 -1.550 -1.310 -1.040 -0.340 -0.030
	sectionCount = 1
	frictionIds = Strickler_35.0
	frictionPositions =  0.000  7.585

[definition]
	id = 20030217-4
	type = yz
	thalweg = 2.152
	yzCount = 13
	yCoordinates =  0.000  0.455  1.387  1.568  1.809  2.019  2.319  2.562  2.753  3.081  3.437  4.432  4.823
	zCoordinates =  0.070 -0.230 -1.020 -1.230 -1.420 -1.470 -1.490 -1.470 -1.440 -1.260 -0.980 -0.190  0.100
	sectionCount = 1
	frictionIds = Strickler_35.0
	frictionPositions =  0.000  4.823

[definition]
	id = 20030217-5
	type = yz
	thalweg = 1.814
	yzCount = 11
	yCoordinates =  0.000  0.463  1.283  1.531  1.629  1.909  2.131  2.275  2.699  3.869  4.226
	zCoordinates =  0.170 -0.180 -0.770 -1.010 -1.170 -1.230 -1.230 -1.030 -0.690  0.100  0.290
	sectionCount = 1
	frictionIds = Strickler_35.0
	frictionPositions =  0.000  4.226

[definition]
	id = 20030217-6
	type = yz
	thalweg = 3.867
	yzCount = 15
	yCoordinates =  0.000  0.342  1.346  1.486  2.077  2.265  2.799  4.063  4.671  5.384  5.696  6.122  6.531  7.855  8.216
	zCoordinates = -0.390 -0.550 -1.370 -1.610 -1.690 -1.890 -2.130 -2.220 -2.150 -1.810 -1.670 -1.470 -1.180 -0.330 -0.150
	sectionCount = 1
	frictionIds = Strickler_35.0
	frictionPositions =  0.000  8.216

[definition]
	id = 20030217-7
	type = yz
	thalweg = 4.533
	yzCount = 14
	yCoordinates =  0.000  0.371  1.081  2.032  2.256  2.598  3.399  4.262  5.185  5.866  6.563  7.035  8.634  9.035
	zCoordinates =  0.340  0.060 -0.480 -1.400 -1.650 -1.830 -1.910 -2.030 -2.230 -2.050 -1.670 -1.270 -0.190  0.070
	sectionCount = 1
	frictionIds = Strickler_35.0
	frictionPositions =  0.000  9.035

[definition]
	id = 20030217-8
	type = yz
	thalweg = 4.066
	yzCount = 15
	yCoordinates =  0.000  0.260  1.105  1.294  1.869  2.379  3.539  4.487  4.975  5.935  6.259  6.749  6.835  7.896  8.376
	zCoordinates = -0.300 -0.480 -1.250 -1.670 -1.640 -1.920 -2.220 -2.190 -2.110 -1.850 -1.660 -1.540 -1.310 -0.430 -0.180
	sectionCount = 1
	frictionIds = Strickler_35.0
	frictionPositions =  0.000  8.376

[definition]
	id = 20030217-9
	type = yz
	thalweg = 4.373
	yzCount = 14
	yCoordinates =  0.000  0.351  2.081  2.316  2.567  2.953  3.747  4.665  5.256  5.906  6.326  6.644  7.864  8.209
	zCoordinates =  0.430  0.200 -1.180 -1.590 -1.640 -1.830 -1.970 -2.040 -1.920 -1.810 -1.580 -1.190 -0.160  0.070
	sectionCount = 1
	frictionIds = Strickler_35.0
	frictionPositions =  0.000  8.209

[definition]
	id = 20030221-1
	type = yz
	thalweg = 4.626
	yzCount = 16
	yCoordinates =  0.000  0.386  0.963  1.400  1.500  2.069  2.719  4.027  6.016  6.956  7.840  8.051  8.500  8.590  9.609 10.049
	zCoordinates =  0.070 -0.170 -0.670 -1.000 -1.310 -1.360 -1.800 -2.070 -2.010 -1.860 -1.480 -1.320 -1.170 -0.850  0.000  0.190
	sectionCount = 1
	frictionIds = Strickler_35.0
	frictionPositions =  0.000 10.049

[definition]
	id = 20030226-1
	type = yz
	thalweg = 2.868
	yzCount = 13
	yCoordinates =  0.000  0.367  1.473  1.652  1.849  2.479  3.180  3.605  3.996  4.306  4.653  5.463  5.804
	zCoordinates = -1.870 -2.070 -2.960 -3.220 -3.370 -3.530 -3.500 -3.430 -3.330 -3.190 -2.880 -2.100 -1.960
	sectionCount = 1
	frictionIds = Strickler_35.0
	frictionPositions =  0.000  5.804

[definition]
	id = 20030226-2
	type = yz
	thalweg = 2.231
	yzCount = 14
	yCoordinates =  0.000  0.393  1.323  1.651  1.902  2.033  2.183  2.501  2.713  3.000  3.054  3.197  4.172  4.725
	zCoordinates = -2.000 -2.140 -2.820 -3.080 -3.200 -3.470 -3.480 -3.450 -3.470 -3.470 -3.210 -2.900 -2.270 -1.980
	sectionCount = 1
	frictionIds = Strickler_35.0
	frictionPositions =  0.000  4.725

[definition]
	id = 20030226-3
	type = yz
	thalweg = 2.343
	yzCount = 13
	yCoordinates =  0.000  0.304  0.997  1.230  1.597  2.221  2.673  3.073  3.481  3.778  4.073  5.089  5.588
	zCoordinates = -1.690 -1.860 -2.350 -2.630 -2.960 -3.150 -3.130 -3.100 -2.810 -2.660 -2.400 -1.660 -1.420
	sectionCount = 1
	frictionIds = Strickler_35.0
	frictionPositions =  0.000  5.588

[definition]
	id = 20030310-1
	type = yz
	thalweg = 2.988
	yzCount = 14
	yCoordinates =  0.000  0.314  1.415  1.671  2.042  2.472  2.487  3.087  3.616  4.239  4.445  4.700  5.918  6.358
	zCoordinates = -1.010 -1.140 -2.160 -2.260 -2.570 -2.990 -2.670 -3.000 -2.940 -2.590 -2.240 -2.020 -1.190 -0.870
	sectionCount = 1
	frictionIds = Strickler_35.0
	frictionPositions =  0.000  6.358

[definition]
	id = 20030310-10
	type = yz
	thalweg = 4.566
	yzCount = 14
	yCoordinates =  0.000  0.490  1.502  1.809  2.385  3.125  4.008  4.878  6.678  7.109  7.141  7.921  8.699  8.979
	zCoordinates = -1.360 -1.710 -2.690 -3.180 -3.590 -3.550 -3.560 -3.490 -3.530 -3.170 -2.880 -2.600 -1.840 -1.590
	sectionCount = 1
	frictionIds = Strickler_35.0
	frictionPositions =  0.000  8.979

[definition]
	id = 20030310-11
	type = yz
	thalweg = 2.705
	yzCount = 13
	yCoordinates =  0.000  0.308  0.989  1.388  1.820  2.143  2.636  3.311  3.812  4.272  4.425  5.145  5.488
	zCoordinates = -1.010 -1.260 -2.000 -2.360 -2.580 -2.720 -2.880 -2.850 -2.590 -2.350 -2.070 -1.410 -1.130
	sectionCount = 1
	frictionIds = Strickler_35.0
	frictionPositions =  0.000  5.488

[definition]
	id = 20030310-2
	type = yz
	thalweg = 2.019
	yzCount = 13
	yCoordinates =  0.000  0.318  1.284  1.414  1.665  1.936  2.313  2.510  2.660  2.821  3.110  4.116  4.730
	zCoordinates = -0.860 -1.110 -1.870 -2.070 -2.390 -2.430 -2.420 -2.390 -2.330 -2.060 -1.760 -0.990 -0.600
	sectionCount = 1
	frictionIds = Strickler_35.0
	frictionPositions =  0.000  4.730

[definition]
	id = 20030310-3
	type = yz
	thalweg = 2.263
	yzCount = 13
	yCoordinates =  0.000  0.391  1.021  1.249  1.528  1.929  2.296  2.666  3.040  3.391  3.495  4.398  4.898
	zCoordinates = -0.820 -1.130 -1.750 -2.070 -2.340 -2.450 -2.480 -2.530 -2.450 -2.040 -1.910 -1.190 -1.000
	sectionCount = 1
	frictionIds = Strickler_35.0
	frictionPositions =  0.000  4.898

[definition]
	id = 20030310-4
	type = yz
	thalweg = 3.388
	yzCount = 15
	yCoordinates =  0.000  0.391  1.559  2.178  2.626  2.784  3.097  3.540  4.045  4.372  4.714  4.864  5.238  6.317  6.931
	zCoordinates = -0.640 -0.920 -1.750 -2.430 -2.470 -2.820 -2.810 -2.880 -2.760 -2.640 -2.520 -2.390 -2.020 -1.010 -0.670
	sectionCount = 1
	frictionIds = Strickler_35.0
	frictionPositions =  0.000  6.931

[definition]
	id = 20030310-5
	type = yz
	thalweg = 3.142
	yzCount = 14
	yCoordinates =  0.000  0.448  1.602  1.861  2.295  2.550  2.868  3.318  3.495  3.775  4.123  4.281  5.726  6.300
	zCoordinates = -1.400 -1.700 -2.510 -2.850 -2.960 -3.270 -3.340 -3.340 -3.340 -3.350 -2.980 -2.820 -1.660 -1.210
	sectionCount = 1
	frictionIds = Strickler_35.0
	frictionPositions =  0.000  6.300

[definition]
	id = 20030310-6
	type = yz
	thalweg = 4.044
	yzCount = 16
	yCoordinates =  0.000  0.289  1.824  2.291  2.731  3.052  3.132  3.776  4.251  4.722  5.385  5.560  6.128  6.508  8.017  8.631
	zCoordinates = -1.470 -1.620 -2.690 -3.060 -3.200 -3.430 -3.320 -3.680 -3.700 -3.720 -3.460 -3.200 -3.100 -2.850 -1.650 -1.230
	sectionCount = 1
	frictionIds = Strickler_35.0
	frictionPositions =  0.000  8.631

[definition]
	id = 20030310-7
	type = yz
	thalweg = 4.167
	yzCount = 14
	yCoordinates =  0.000  0.559  1.940  2.379  2.860  3.715  4.287  4.702  5.563  6.028  6.455  6.630  8.001  8.323
	zCoordinates = -1.560 -2.010 -2.950 -3.270 -3.420 -3.950 -3.920 -3.940 -3.700 -3.260 -3.200 -2.900 -2.060 -1.900
	sectionCount = 1
	frictionIds = Strickler_35.0
	frictionPositions =  0.000  8.323

[definition]
	id = 20030310-8
	type = yz
	thalweg = 4.145
	yzCount = 13
	yCoordinates =  0.000  0.497  1.337  1.606  1.937  3.181  4.015  5.910  7.169  7.440  7.709  8.845  9.403
	zCoordinates = -2.100 -2.300 -2.890 -3.250 -3.510 -4.000 -4.080 -4.030 -3.470 -3.230 -2.970 -2.160 -1.880
	sectionCount = 1
	frictionIds = Strickler_35.0
	frictionPositions =  0.000  9.403

[definition]
	id = 20030310-9
	type = yz
	thalweg = 3.946
	yzCount = 15
	yCoordinates =  0.000  0.395  1.057  1.426  1.857  2.912  3.573  5.733  7.090  7.353  7.700  7.990  8.027  8.527  8.807
	zCoordinates = -2.100 -2.410 -2.940 -3.210 -3.570 -4.090 -4.380 -4.270 -3.560 -3.260 -3.190 -2.770 -2.770 -2.350 -2.210
	sectionCount = 1
	frictionIds = Strickler_35.0
	frictionPositions =  0.000  8.807

[definition]
	id = 20030312-1
	type = yz
	thalweg = 2.841
	yzCount = 17
	yCoordinates =  0.000  0.300  0.932  1.595  1.709  1.994  2.229  2.700  3.252  3.541  3.784  4.046  4.312  4.457  4.677  5.588  5.981
	zCoordinates = -0.690 -0.810 -1.370 -1.950 -2.230 -2.270 -2.470 -2.500 -2.530 -2.530 -2.480 -2.260 -2.250 -2.210 -1.760 -1.010 -0.770
	sectionCount = 1
	frictionIds = Strickler_35.0
	frictionPositions =  0.000  5.981

[definition]
	id = 20030312-2
	type = yz
	thalweg = 3.739
	yzCount = 14
	yCoordinates =  0.000  0.396  1.987  2.678  3.150  3.232  3.548  3.874  4.256  4.617  4.849  5.071  7.035  7.710
	zCoordinates =  0.000 -0.260 -1.370 -1.860 -2.070 -2.230 -2.470 -2.430 -2.350 -2.310 -2.090 -1.890 -0.620 -0.150
	sectionCount = 1
	frictionIds = Strickler_35.0
	frictionPositions =  0.000  7.710

[definition]
	id = 20030312-3
	type = yz
	thalweg = 1.946
	yzCount = 13
	yCoordinates =  0.000  0.261  0.964  1.455  1.558  1.731  2.015  2.265  2.450  2.613  3.617  4.239  4.621
	zCoordinates =  0.900  0.580  0.060 -0.280 -0.450 -0.660 -0.750 -0.700 -0.450 -0.140  0.470  0.930  1.180
	sectionCount = 1
	frictionIds = Strickler_35.0
	frictionPositions =  0.000  4.621

[definition]
	id = 20030312-4
	type = yz
	thalweg = 2.233
	yzCount = 12
	yCoordinates =  0.000  0.433  1.696  2.076  2.271  2.421  2.641  2.902  3.019  3.185  4.612  4.986
	zCoordinates = -0.320 -0.530 -1.460 -1.760 -1.920 -1.970 -1.940 -1.960 -1.750 -1.520 -0.640 -0.360
	sectionCount = 1
	frictionIds = Strickler_35.0
	frictionPositions =  0.000  4.986

[definition]
	id = 20030312-5
	type = yz
	thalweg = 2.446
	yzCount = 14
	yCoordinates =  0.000  0.501  1.668  1.788  1.958  2.139  2.418  2.862  3.118  3.275  3.588  4.541  5.183  5.533
	zCoordinates = -0.470 -0.780 -1.760 -1.880 -2.050 -2.160 -2.180 -2.170 -2.090 -1.890 -1.660 -1.040 -0.440 -0.250
	sectionCount = 1
	frictionIds = Strickler_35.0
	frictionPositions =  0.000  5.533

[definition]
	id = 20030312-6
	type = yz
	thalweg = 2.959
	yzCount = 15
	yCoordinates =  0.000  0.598  1.388  2.109  2.351  2.491  2.621  2.963  3.119  3.379  3.554  3.806  4.702  5.154  5.576
	zCoordinates = -1.770 -1.910 -2.410 -2.830 -3.090 -3.250 -3.280 -3.320 -3.330 -3.280 -3.090 -2.850 -2.330 -2.030 -1.730
	sectionCount = 1
	frictionIds = Strickler_35.0
	frictionPositions =  0.000  5.576

[definition]
	id = 20030312-7
	type = yz
	thalweg = 3.443
	yzCount = 14
	yCoordinates =  0.000  0.553  1.118  2.555  2.655  2.755  3.048  3.280  3.868  4.208  4.385  5.106  6.239  6.679
	zCoordinates = -0.690 -0.960 -1.460 -2.330 -2.450 -2.700 -2.810 -2.850 -2.860 -2.630 -2.460 -1.920 -1.050 -0.740
	sectionCount = 1
	frictionIds = Strickler_35.0
	frictionPositions =  0.000  6.679

[definition]
	id = 20030312-8
	type = yz
	thalweg = 6.927
	yzCount = 17
	yCoordinates =  0.000  0.966  2.775  3.197  3.505  3.725  4.427  5.214  8.285  9.227 10.505 11.027 11.236 11.366 12.997 14.050 14.511
	zCoordinates = -0.850 -1.620 -2.750 -2.890 -3.360 -3.630 -3.850 -4.340 -4.430 -4.320 -3.720 -3.560 -3.340 -3.020 -1.960 -1.210 -0.970
	sectionCount = 1
	frictionIds = Strickler_35.0
	frictionPositions =  0.000 14.511

[definition]
	id = 20030312-9
	type = yz
	thalweg = 2.803
	yzCount = 13
	yCoordinates =  0.000  0.475  2.030  2.214  2.399  2.654  2.955  3.174  3.479  3.640  4.638  5.880  6.323
	zCoordinates = -0.690 -1.010 -2.190 -2.360 -2.560 -2.620 -2.670 -2.640 -2.530 -2.350 -1.530 -0.690 -0.370
	sectionCount = 1
	frictionIds = Strickler_35.0
	frictionPositions =  0.000  6.323

[definition]
	id = 20030313-1
	type = yz
	thalweg = 6.691
	yzCount = 17
	yCoordinates =  0.000  0.542  1.617  2.858  3.027  3.287  3.826  4.450  5.115  8.507  9.206 10.180 10.461 10.874 11.610 12.707 13.673
	zCoordinates = -1.220 -1.520 -2.240 -3.020 -3.370 -3.560 -3.900 -4.430 -4.410 -4.450 -3.960 -3.540 -3.370 -3.120 -2.870 -2.130 -1.390
	sectionCount = 1
	frictionIds = Strickler_35.0
	frictionPositions =  0.000 13.673

[definition]
	id = 20030313-2
	type = yz
	thalweg = 3.755
	yzCount = 14
	yCoordinates =  0.000  0.446  1.136  1.326  1.720  2.768  4.143  4.810  5.657  5.828  6.047  6.195  7.013  7.294
	zCoordinates = -2.260 -2.500 -3.000 -3.410 -3.600 -3.840 -3.950 -3.760 -3.490 -3.410 -3.320 -2.860 -2.330 -2.220
	sectionCount = 1
	frictionIds = Strickler_35.0
	frictionPositions =  0.000  7.294

[definition]
	id = 20030313-3
	type = yz
	thalweg = 2.943
	yzCount = 14
	yCoordinates =  0.000  0.271  1.144  1.271  1.471  1.834  2.698  3.568  4.302  4.780  4.999  5.152  6.021  6.296
	zCoordinates = -2.110 -2.290 -3.060 -3.370 -3.420 -3.580 -3.800 -3.860 -3.630 -3.480 -3.420 -3.060 -2.330 -2.170
	sectionCount = 1
	frictionIds = Strickler_35.0
	frictionPositions =  0.000  6.296

[definition]
	id = 20030313-4
	type = yz
	thalweg = 2.205
	yzCount = 15
	yCoordinates =  0.000  0.171  0.758  1.044  1.315  1.599  1.863  2.416  2.641  3.050  3.145  3.512  3.598  4.309  4.649
	zCoordinates = -2.460 -2.560 -2.850 -3.200 -3.280 -3.350 -3.380 -3.400 -3.390 -3.360 -3.280 -3.150 -2.910 -2.570 -2.460
	sectionCount = 1
	frictionIds = Strickler_35.0
	frictionPositions =  0.000  4.649

[definition]
	id = 20030313-5
	type = yz
	thalweg = 2.262
	yzCount = 13
	yCoordinates =  0.000  0.400  1.199  1.528  1.779  2.076  2.506  2.726  2.958  3.146  3.628  4.214  4.572
	zCoordinates = -0.920 -1.170 -1.720 -1.980 -2.240 -2.340 -2.350 -2.280 -2.150 -1.980 -1.640 -1.240 -0.870
	sectionCount = 1
	frictionIds = Strickler_35.0
	frictionPositions =  0.000  4.572

[definition]
	id = 20030403-1
	type = yz
	thalweg = 3.584
	yzCount = 14
	yCoordinates =  0.000  0.522  1.569  2.392  2.598  2.730  3.072  3.451  4.024  4.515  4.714  4.920  6.571  6.924
	zCoordinates = -0.140 -0.390 -1.280 -1.870 -2.080 -2.310 -2.510 -2.460 -2.390 -2.280 -2.090 -1.930 -0.470 -0.230
	sectionCount = 1
	frictionIds = Strickler_35.0
	frictionPositions =  0.000  6.924

[definition]
	id = 20030403-10
	type = yz
	thalweg = 4.451
	yzCount = 13
	yCoordinates =  0.000  0.304  0.968  1.229  1.504  2.176  3.098  6.533  7.620  8.093  8.305  9.067  9.593
	zCoordinates = -1.790 -1.980 -2.530 -2.950 -3.390 -3.570 -4.150 -3.870 -3.400 -2.980 -2.540 -1.930 -1.570
	sectionCount = 1
	frictionIds = Strickler_35.0
	frictionPositions =  0.000  9.593

[definition]
	id = 20030403-2
	type = yz
	thalweg = 4.442
	yzCount = 15
	yCoordinates =  0.000  0.362  1.032  2.387  2.739  3.066  3.715  4.833  5.293  5.931  6.101  6.182  6.713  8.435  8.850
	zCoordinates =  0.030 -0.160 -0.760 -1.660 -2.100 -2.500 -2.690 -2.890 -2.780 -2.490 -2.070 -1.980 -1.740 -0.190  0.060
	sectionCount = 1
	frictionIds = Strickler_35.0
	frictionPositions =  0.000  8.850

[definition]
	id = 20030403-3
	type = yz
	thalweg = 2.822
	yzCount = 12
	yCoordinates =  0.000  0.373  0.943  1.956  2.165  2.346  3.073  3.463  3.710  3.844  4.896  5.296
	zCoordinates = -1.250 -1.570 -1.960 -2.580 -2.840 -2.950 -3.020 -2.920 -2.830 -2.510 -1.720 -1.400
	sectionCount = 1
	frictionIds = Strickler_35.0
	frictionPositions =  0.000  5.296

[definition]
	id = 20030403-4
	type = yz
	thalweg = 3.0
	yzCount = 15
	yCoordinates =  0.000  0.472  1.961  2.241  2.399  2.732  3.084  3.379  3.719  3.970  4.160  4.326  4.899  5.324  5.616
	zCoordinates = -1.160 -1.460 -2.500 -2.850 -2.920 -3.040 -3.000 -3.000 -2.940 -2.820 -2.800 -2.480 -2.130 -1.770 -1.450
	sectionCount = 1
	frictionIds = Strickler_35.0
	frictionPositions =  0.000  5.616

[definition]
	id = 20030403-5
	type = yz
	thalweg = 3.989
	yzCount = 14
	yCoordinates =  0.000  0.403  1.443  1.614  1.891  2.671  3.474  4.455  5.165  5.602  6.043  6.263  6.903  7.355
	zCoordinates = -1.380 -1.540 -2.600 -2.970 -3.110 -3.350 -3.620 -3.600 -3.140 -2.950 -2.930 -2.510 -1.770 -1.490
	sectionCount = 1
	frictionIds = Strickler_35.0
	frictionPositions =  0.000  7.355

[definition]
	id = 20030403-7
	type = yz
	thalweg = 2.544
	yzCount = 14
	yCoordinates =  0.000  0.551  1.552  1.743  1.993  2.244  2.628  3.089  3.309  3.639  3.953  4.773  5.133  5.453
	zCoordinates = -1.360 -1.700 -2.490 -2.760 -2.910 -3.060 -3.110 -3.050 -2.920 -2.730 -2.230 -1.810 -1.380 -1.270
	sectionCount = 1
	frictionIds = Strickler_35.0
	frictionPositions =  0.000  5.453

[definition]
	id = 20030403-8
	type = yz
	thalweg = 2.958
	yzCount = 13
	yCoordinates =  0.000  0.391  1.171  1.332  1.535  2.145  2.765  3.915  4.655  4.995  5.285  5.735  5.995
	zCoordinates = -1.940 -2.110 -2.570 -2.940 -3.270 -3.500 -3.530 -3.480 -3.280 -2.940 -2.580 -2.070 -1.910
	sectionCount = 1
	frictionIds = Strickler_35.0
	frictionPositions =  0.000  5.995

[definition]
	id = 20030403-9
	type = yz
	thalweg = 4.513
	yzCount = 13
	yCoordinates =  0.000  0.415  1.196  1.345  1.735  3.094  6.348  6.964  8.035  8.296  8.449  9.127  9.671
	zCoordinates = -1.830 -1.990 -2.550 -3.000 -3.360 -4.050 -4.150 -3.980 -3.270 -2.990 -2.560 -1.940 -1.610
	sectionCount = 1
	frictionIds = Strickler_35.0
	frictionPositions =  0.000  9.671

[definition]
	id = 20030404-1
	type = yz
	thalweg = 4.676
	yzCount = 17
	yCoordinates =  0.000  0.321  0.584  1.432  1.575  1.803  2.805  4.200  6.218  6.938  7.853  8.636  8.753  8.903  9.415  9.697 10.321
	zCoordinates = -1.560 -1.760 -2.000 -2.870 -3.000 -3.380 -3.550 -3.870 -3.920 -3.790 -3.420 -3.370 -3.010 -2.640 -2.180 -1.960 -1.690
	sectionCount = 1
	frictionIds = Strickler_35.0
	frictionPositions =  0.000 10.321

[definition]
	id = 20030404-10
	type = yz
	thalweg = 3.599
	yzCount = 14
	yCoordinates =  0.000  0.424  1.849  2.252  2.469  2.931  3.581  4.247  5.011  5.480  5.886  7.204  7.512  7.908
	zCoordinates = -1.070 -1.370 -2.360 -2.780 -2.900 -3.080 -3.240 -3.200 -3.070 -2.770 -2.180 -1.230 -0.940 -0.620
	sectionCount = 1
	frictionIds = Strickler_35.0
	frictionPositions =  0.000  7.908

[definition]
	id = 20030404-11
	type = yz
	thalweg = 3.103
	yzCount = 13
	yCoordinates =  0.000  0.322  1.214  1.322  1.454  1.935  2.795  3.391  4.660  4.922  5.042  5.885  6.261
	zCoordinates = -2.410 -2.550 -3.190 -3.470 -3.860 -3.820 -3.990 -4.010 -3.700 -3.460 -3.110 -2.480 -2.200
	sectionCount = 1
	frictionIds = Strickler_35.0
	frictionPositions =  0.000  6.261

[definition]
	id = 20030404-12
	type = yz
	thalweg = 3.186
	yzCount = 14
	yCoordinates =  0.000  0.301  0.832  1.243  1.455  1.718  2.440  3.649  4.204  4.861  4.991  5.175  5.713  6.014
	zCoordinates = -2.400 -2.600 -2.930 -3.170 -3.460 -4.060 -4.210 -4.460 -4.200 -3.740 -3.510 -3.150 -2.760 -2.520
	sectionCount = 1
	frictionIds = Strickler_35.0
	frictionPositions =  0.000  6.014

[definition]
	id = 20030404-13
	type = yz
	thalweg = 3.255
	yzCount = 13
	yCoordinates =  0.000  0.336  0.947  1.057  1.270  2.250  3.451  4.158  4.840  5.073  5.183  5.962  6.420
	zCoordinates = -2.610 -2.770 -3.180 -3.490 -4.110 -4.370 -4.450 -4.190 -3.890 -3.530 -3.250 -2.680 -2.490
	sectionCount = 1
	frictionIds = Strickler_35.0
	frictionPositions =  0.000  6.420

[definition]
	id = 20030404-2
	type = yz
	thalweg = 4.975
	yzCount = 14
	yCoordinates =  0.000  0.262  0.996  1.126  1.556  2.686  6.591  7.207  8.088  8.571  8.636  8.722  9.595  9.927
	zCoordinates = -1.780 -2.080 -2.680 -3.020 -3.500 -3.600 -3.860 -3.690 -3.270 -3.180 -2.970 -2.600 -1.880 -1.750
	sectionCount = 1
	frictionIds = Strickler_35.0
	frictionPositions =  0.000  9.927

[definition]
	id = 20030404-3
	type = yz
	thalweg = 2.457
	yzCount = 14
	yCoordinates =  0.000  0.446  1.136  1.522  1.781  1.873  2.269  2.566  2.863  3.183  3.282  3.491  4.320  4.652
	zCoordinates = -1.490 -1.730 -2.230 -2.410 -2.630 -2.800 -3.020 -3.060 -2.940 -2.740 -2.620 -2.260 -1.630 -1.510
	sectionCount = 1
	frictionIds = Strickler_35.0
	frictionPositions =  0.000  4.652

[definition]
	id = 20030404-4
	type = yz
	thalweg = 2.932
	yzCount = 14
	yCoordinates =  0.000  0.314  0.904  1.541  1.692  2.162  2.602  3.201  3.732  4.078  4.382  4.472  5.163  5.423
	zCoordinates = -1.070 -1.270 -1.770 -2.130 -2.460 -2.610 -2.730 -2.780 -2.640 -2.590 -2.460 -2.110 -1.490 -1.260
	sectionCount = 1
	frictionIds = Strickler_35.0
	frictionPositions =  0.000  5.423

[definition]
	id = 20030404-5
	type = yz
	thalweg = 3.078
	yzCount = 14
	yCoordinates =  0.000  0.272  1.154  1.468  1.810  2.046  2.382  2.806  3.363  3.936  4.250  4.456  4.653  5.634
	zCoordinates = -1.490 -1.650 -2.420 -2.610 -3.010 -3.260 -3.470 -3.610 -3.510 -3.330 -3.050 -2.890 -2.520 -1.720
	sectionCount = 1
	frictionIds = Strickler_35.0
	frictionPositions =  0.000  5.634

[definition]
	id = 20030404-6
	type = yz
	thalweg = 2.896
	yzCount = 15
	yCoordinates =  0.000  0.391  1.350  2.191  2.285  2.406  2.626  3.165  3.423  3.674  3.755  3.806  4.907  5.645  6.056
	zCoordinates = -1.870 -2.080 -2.640 -3.110 -3.380 -3.620 -3.790 -3.800 -3.640 -3.480 -3.390 -3.110 -2.500 -2.000 -1.780
	sectionCount = 1
	frictionIds = Strickler_35.0
	frictionPositions =  0.000  6.056

[definition]
	id = 20030404-7
	type = yz
	thalweg = 3.928
	yzCount = 15
	yCoordinates =  0.000  0.932  1.656  2.217  2.430  2.810  3.513  4.156  4.879  5.242  5.405  5.549  6.600  6.806  7.255
	zCoordinates = -1.540 -2.240 -2.890 -3.090 -3.500 -3.800 -4.050 -4.170 -4.070 -3.670 -3.510 -3.110 -2.410 -2.070 -1.610
	sectionCount = 1
	frictionIds = Strickler_35.0
	frictionPositions =  0.000  7.255

[definition]
	id = 20030404-8
	type = yz
	thalweg = 3.008
	yzCount = 16
	yCoordinates =  0.000  0.273  0.942  1.072  1.560  1.739  2.289  2.703  3.879  4.395  4.548  4.683  5.088  5.208  5.956  6.417
	zCoordinates = -1.840 -2.020 -2.490 -2.790 -2.960 -3.220 -3.610 -3.590 -3.420 -3.120 -2.960 -2.780 -2.730 -2.370 -1.820 -1.490
	sectionCount = 1
	frictionIds = Strickler_35.0
	frictionPositions =  0.000  6.417

[definition]
	id = 20030404-9
	type = yz
	thalweg = 2.396
	yzCount = 13
	yCoordinates =  0.000  0.386  1.378  1.469  2.120  2.279  2.579  2.943  3.255  3.466  3.835  4.829  5.205
	zCoordinates = -1.190 -1.360 -2.340 -2.520 -2.940 -3.060 -3.230 -3.110 -2.920 -2.860 -2.460 -1.640 -1.390
	sectionCount = 1
	frictionIds = Strickler_35.0
	frictionPositions =  0.000  5.205

[definition]
	id = 20030407-1
	type = yz
	thalweg = 3.091
	yzCount = 13
	yCoordinates =  0.000  0.463  2.109  2.271  2.603  2.988  3.398  3.675  4.159  4.251  4.457  6.100  6.611
	zCoordinates = -1.130 -1.420 -2.580 -2.860 -3.220 -3.240 -3.240 -3.220 -3.080 -2.840 -2.560 -1.280 -0.940
	sectionCount = 1
	frictionIds = Strickler_35.0
	frictionPositions =  0.000  6.611

[definition]
	id = 20030407-2
	type = yz
	thalweg = 3.043
	yzCount = 11
	yCoordinates =  0.000  0.517  2.087  2.334  2.483  2.653  2.894  3.028  3.214  4.943  5.321
	zCoordinates = -1.010 -1.350 -2.430 -2.640 -2.740 -2.750 -2.760 -2.660 -2.450 -1.290 -1.030
	sectionCount = 1
	frictionIds = Strickler_35.0
	frictionPositions =  0.000  5.321

[definition]
	id = 20030407-3
	type = yz
	thalweg = 3.261
	yzCount = 15
	yCoordinates =  0.000  0.352  1.993  2.123  2.371  2.549  2.997  3.369  3.755  4.066  4.379  4.726  4.904  6.702  7.098
	zCoordinates = -1.090 -1.200 -2.600 -2.910 -2.950 -3.090 -3.160 -3.240 -3.180 -3.070 -2.940 -2.790 -2.500 -1.110 -0.670
	sectionCount = 1
	frictionIds = Strickler_35.0
	frictionPositions =  0.000  7.098

[definition]
	id = 20030407-4
	type = yz
	thalweg = 3.383
	yzCount = 14
	yCoordinates =  0.000  0.497  2.081  2.520  3.006  3.253  3.711  3.983  4.336  4.422  4.642  4.856  6.792  7.306
	zCoordinates = -0.850 -1.170 -2.460 -2.900 -3.070 -3.100 -3.110 -3.080 -3.000 -2.850 -2.760 -2.410 -0.900 -0.580
	sectionCount = 1
	frictionIds = Strickler_35.0
	frictionPositions =  0.000  7.306

[definition]
	id = 20030407-5
	type = yz
	thalweg = 2.599
	yzCount = 12
	yCoordinates =  0.000  0.322  1.715  1.953  2.137  2.307  3.260  3.560  3.721  3.889  5.239  5.696
	zCoordinates = -1.180 -1.480 -2.520 -2.830 -2.980 -3.130 -3.230 -3.150 -2.970 -2.600 -1.560 -1.310
	sectionCount = 1
	frictionIds = Strickler_35.0
	frictionPositions =  0.000  5.696

[definition]
	id = 20030407-7
	type = yz
	thalweg = 5.019
	yzCount = 13
	yCoordinates =  0.000  0.488  1.165  1.277  1.613  2.833  4.705  6.750  7.688  7.984  8.276  8.930  9.446
	zCoordinates = -2.500 -2.670 -3.080 -3.380 -3.770 -4.120 -4.580 -4.280 -3.770 -3.450 -2.960 -2.680 -2.380
	sectionCount = 1
	frictionIds = Strickler_35.0
	frictionPositions =  0.000  9.446

[definition]
	id = 20030407-8
	type = yz
	thalweg = 5.446
	yzCount = 14
	yCoordinates =  0.000  1.146  2.376  2.568  2.879  4.433  5.976  7.396  8.482  8.751  8.993  9.339 11.067 11.916
	zCoordinates = -1.920 -2.230 -3.130 -3.440 -3.810 -4.190 -4.260 -4.030 -3.740 -3.430 -3.150 -2.820 -2.080 -1.740
	sectionCount = 1
	frictionIds = Strickler_35.0
	frictionPositions =  0.000 11.916

[definition]
	id = 20030408-1
	type = yz
	thalweg = 2.963
	yzCount = 13
	yCoordinates =  0.000  0.323  1.206  1.291  1.722  2.660  3.453  4.102  4.804  4.906  5.018  5.598  5.916
	zCoordinates = -2.360 -2.560 -3.130 -3.500 -3.970 -4.260 -4.350 -4.100 -3.640 -3.470 -3.090 -2.670 -2.460
	sectionCount = 1
	frictionIds = Strickler_35.0
	frictionPositions =  0.000  5.916

[definition]
	id = 20030408-10
	type = yz
	thalweg = 2.329
	yzCount = 11
	yCoordinates =  0.000  0.331  1.555  1.663  1.803  2.221  2.939  3.056  3.168  4.277  4.539
	zCoordinates = -2.120 -2.270 -3.130 -3.480 -3.690 -3.900 -3.690 -3.470 -3.080 -2.330 -2.060
	sectionCount = 1
	frictionIds = Strickler_35.0
	frictionPositions =  0.000  4.539

[definition]
	id = 20030408-11
	type = yz
	thalweg = 2.662
	yzCount = 13
	yCoordinates =  0.000  0.310  1.467  1.689  1.866  2.329  2.840  3.156  3.515  3.670  3.821  4.641  4.913
	zCoordinates = -2.030 -2.180 -3.030 -3.470 -3.660 -3.840 -3.930 -3.880 -3.730 -3.470 -3.080 -2.510 -2.350
	sectionCount = 1
	frictionIds = Strickler_35.0
	frictionPositions =  0.000  4.913

[definition]
	id = 20030408-12
	type = yz
	thalweg = 4.119
	yzCount = 13
	yCoordinates =  0.000  0.314  1.248  1.382  1.759  2.958  5.447  5.953  6.875  7.121  7.439  8.034  8.275
	zCoordinates = -2.260 -2.460 -3.050 -3.420 -3.850 -4.270 -4.380 -4.160 -3.750 -3.430 -3.010 -2.530 -2.390
	sectionCount = 1
	frictionIds = Strickler_35.0
	frictionPositions =  0.000  8.275

[definition]
	id = 20030408-13
	type = yz
	thalweg = 3.851
	yzCount = 13
	yCoordinates =  0.000  0.280  1.289  1.439  1.651  3.124  4.683  5.357  6.138  6.338  6.439  7.241  7.671
	zCoordinates = -2.480 -2.660 -3.170 -3.430 -4.010 -4.490 -4.570 -4.280 -3.830 -3.440 -3.290 -2.770 -2.590
	sectionCount = 1
	frictionIds = Strickler_35.0
	frictionPositions =  0.000  7.671

[definition]
	id = 20030408-2
	type = yz
	thalweg = 4.159
	yzCount = 14
	yCoordinates =  0.000  0.322  1.953  2.123  2.342  2.710  3.918  4.496  5.071  5.896  6.093  6.360  8.104  8.563
	zCoordinates = -1.790 -1.940 -2.940 -3.240 -3.510 -3.790 -4.190 -4.230 -4.110 -3.710 -3.480 -3.010 -1.810 -1.660
	sectionCount = 1
	frictionIds = Strickler_35.0
	frictionPositions =  0.000  8.563

[definition]
	id = 20030408-4
	type = yz
	thalweg = 4.562
	yzCount = 13
	yCoordinates =  0.000  0.440  2.102  2.496  2.838  3.496  5.025  5.904  6.562  6.783  6.922  8.046  8.381
	zCoordinates = -1.560 -1.840 -3.060 -3.480 -4.020 -4.090 -4.320 -4.220 -3.820 -3.480 -3.170 -2.200 -2.030
	sectionCount = 1
	frictionIds = Strickler_35.0
	frictionPositions =  0.000  8.381

[definition]
	id = 20030408-5
	type = yz
	thalweg = 4.129
	yzCount = 13
	yCoordinates =  0.000  0.489  1.742  1.899  2.316  3.358  4.767  5.282  6.167  6.423  6.559  8.201  8.641
	zCoordinates = -1.910 -2.240 -3.070 -3.480 -3.920 -4.170 -4.420 -4.400 -3.730 -3.470 -3.140 -1.960 -1.830
	sectionCount = 1
	frictionIds = Strickler_35.0
	frictionPositions =  0.000  8.641

[definition]
	id = 20030408-7
	type = yz
	thalweg = 2.431
	yzCount = 14
	yCoordinates =  0.000  0.416  1.306  1.509  1.692  1.970  2.243  2.585  2.907  3.086  3.219  4.705  6.089  7.681
	zCoordinates = -2.010 -2.280 -3.010 -3.410 -3.560 -3.700 -3.790 -3.830 -3.770 -3.420 -3.220 -2.610 -2.050 -1.610
	sectionCount = 1
	frictionIds = Strickler_35.0
	frictionPositions =  0.000  7.681

[definition]
	id = 20030408-9
	type = yz
	thalweg = 4.943
	yzCount = 12
	yCoordinates =  0.000  0.463  1.090  1.248  1.435  2.835  6.958  7.837  8.645  8.848  8.920 10.037
	zCoordinates = -2.400 -2.630 -3.140 -3.450 -3.850 -4.240 -4.530 -4.210 -3.910 -3.470 -3.300 -2.400
	sectionCount = 1
	frictionIds = Strickler_35.0
	frictionPositions =  0.000 10.037

[definition]
	id = 20060316-0722
	type = yz
	thalweg = 2.392
	yzCount = 7
	yCoordinates =  0.000  1.006  1.619  3.173  3.733  4.475  5.579
	zCoordinates = -3.050 -3.500 -4.140 -4.210 -3.570 -3.180 -2.620
	sectionCount = 1
	frictionIds = Strickler_35.0
	frictionPositions =  0.000  5.579

[definition]
	id = 20060316-0723
	type = yz
	thalweg = 2.838
	yzCount = 6
	yCoordinates =  0.000  0.563  0.905  3.876  4.300  5.227
	zCoordinates = -3.200 -3.630 -4.170 -4.040 -3.540 -2.900
	sectionCount = 1
	frictionIds = Strickler_35.0
	frictionPositions =  0.000  5.227

[definition]
	id = 20060316-0724
	type = yz
	thalweg = 3.23
	yzCount = 8
	yCoordinates =  0.000  0.500  1.375  1.735  4.525  4.962  5.561  6.273
	zCoordinates = -2.900 -3.140 -3.560 -4.230 -4.090 -3.720 -3.290 -2.810
	sectionCount = 1
	frictionIds = Strickler_35.0
	frictionPositions =  0.000  6.273

[definition]
	id = 20060316-0725
	type = yz
	thalweg = 2.467
	yzCount = 8
	yCoordinates =  0.000  0.385  1.018  1.464  4.070  4.547  5.175  5.735
	zCoordinates = -3.010 -3.230 -3.510 -4.100 -4.000 -3.670 -3.160 -2.840
	sectionCount = 1
	frictionIds = Strickler_35.0
	frictionPositions =  0.000  5.735

[definition]
	id = 20060316-0726
	type = yz
	thalweg = 2.339
	yzCount = 7
	yCoordinates =  0.000  0.379  0.720  4.812  5.201  5.582  6.174
	zCoordinates = -3.410 -3.630 -4.130 -4.180 -3.650 -3.410 -3.030
	sectionCount = 1
	frictionIds = Strickler_35.0
	frictionPositions =  0.000  6.174

[definition]
	id = 20060316-0727
	type = yz
	thalweg = 2.258
	yzCount = 7
	yCoordinates =  0.000  0.713  1.135  4.696  5.138  5.570  6.095
	zCoordinates = -3.050 -3.540 -4.170 -4.170 -3.540 -3.170 -2.890
	sectionCount = 1
	frictionIds = Strickler_35.0
	frictionPositions =  0.000  6.095

[definition]
	id = 20060316-0728
	type = yz
	thalweg = 2.634
	yzCount = 6
	yCoordinates =  0.000  0.534  0.948  4.698  5.245  6.084
	zCoordinates = -3.170 -3.510 -4.080 -4.250 -3.490 -2.900
	sectionCount = 1
	frictionIds = Strickler_35.0
	frictionPositions =  0.000  6.084

[definition]
	id = 20060316-0729
	type = yz
	thalweg = 2.724
	yzCount = 6
	yCoordinates =  0.000  0.385  0.777  4.923  5.533  6.180
	zCoordinates = -3.370 -3.650 -4.200 -4.320 -3.530 -3.030
	sectionCount = 1
	frictionIds = Strickler_35.0
	frictionPositions =  0.000  6.180

[definition]
	id = 20060316-0730
	type = yz
	thalweg = 3.002
	yzCount = 6
	yCoordinates =  0.000  0.296  0.794  5.088  5.673  6.448
	zCoordinates = -3.130 -3.410 -4.170 -4.260 -3.610 -3.050
	sectionCount = 1
	frictionIds = Strickler_35.0
	frictionPositions =  0.000  6.448

[definition]
	id = 20060316-0732
	type = yz
	thalweg = 3.637
	yzCount = 7
	yCoordinates =  0.000  0.762  1.505  5.755  6.192  6.873  7.443
	zCoordinates = -2.790 -3.410 -4.150 -4.150 -3.540 -3.170 -2.820
	sectionCount = 1
	frictionIds = Strickler_35.0
	frictionPositions =  0.000  7.443

[definition]
	id = 20060316-0733
	type = yz
	thalweg = 3.431
	yzCount = 7
	yCoordinates =  0.000  0.255  0.967  1.358  5.861  6.271  7.212
	zCoordinates = -2.820 -3.080 -3.520 -4.210 -4.350 -3.530 -2.900
	sectionCount = 1
	frictionIds = Strickler_35.0
	frictionPositions =  0.000  7.212

[definition]
	id = 20060316-0734
	type = yz
	thalweg = 2.832
	yzCount = 6
	yCoordinates =  0.000  0.618  0.947  4.767  5.296  6.089
	zCoordinates = -3.320 -3.620 -4.180 -4.140 -3.430 -2.870
	sectionCount = 1
	frictionIds = Strickler_35.0
	frictionPositions =  0.000  6.089

[definition]
	id = 20060316-0735
	type = yz
	thalweg = 3.457
	yzCount = 6
	yCoordinates =  0.000  0.640  0.985  5.768  6.180  6.761
	zCoordinates = -3.060 -3.450 -4.110 -4.090 -3.520 -3.100
	sectionCount = 1
	frictionIds = Strickler_35.0
	frictionPositions =  0.000  6.761

[definition]
	id = 20060316-0736
	type = yz
	thalweg = 3.307
	yzCount = 6
	yCoordinates =  0.000  0.798  1.225  5.378  5.900  6.862
	zCoordinates = -3.100 -3.500 -4.060 -4.150 -3.540 -2.960
	sectionCount = 1
	frictionIds = Strickler_35.0
	frictionPositions =  0.000  6.862

[definition]
	id = 20060316-0737
	type = yz
	thalweg = 3.303
	yzCount = 6
	yCoordinates =  0.000  0.592  1.127  5.801  6.222  6.831
	zCoordinates = -3.140 -3.720 -4.040 -4.100 -3.480 -3.140
	sectionCount = 1
	frictionIds = Strickler_35.0
	frictionPositions =  0.000  6.831

[definition]
	id = 20060316-0738
	type = yz
	thalweg = 3.305
	yzCount = 6
	yCoordinates =  0.000  0.750  1.166  5.644  6.123  7.010
	zCoordinates = -2.990 -3.440 -4.110 -4.180 -3.550 -2.990
	sectionCount = 1
	frictionIds = Strickler_35.0
	frictionPositions =  0.000  7.010

[definition]
	id = 20060316-0739
	type = yz
	thalweg = 3.43
	yzCount = 6
	yCoordinates =  0.000  0.818  1.112  5.581  5.984  6.827
	zCoordinates = -3.130 -3.470 -4.220 -4.420 -3.540 -3.100
	sectionCount = 1
	frictionIds = Strickler_35.0
	frictionPositions =  0.000  6.827

[definition]
	id = 20060316-0804
	type = yz
	thalweg = 4.107
	yzCount = 8
	yCoordinates =  0.000  0.873  1.370  1.951  6.634  7.130  7.831  8.432
	zCoordinates = -2.180 -2.690 -3.060 -3.860 -3.750 -3.110 -2.420 -1.940
	sectionCount = 1
	frictionIds = Strickler_35.0
	frictionPositions =  0.000  8.432

[definition]
	id = 20060316-0808
	type = yz
	thalweg = 4.957
	yzCount = 8
	yCoordinates =  0.000  0.821  1.414  1.676  7.375  7.845  8.547  9.465
	zCoordinates = -2.180 -2.770 -3.170 -3.760 -3.810 -3.130 -2.770 -2.100
	sectionCount = 1
	frictionIds = Strickler_35.0
	frictionPositions =  0.000  9.465

[definition]
	id = 20080820-5
	type = yz
	thalweg = 2.795
	yzCount = 13
	yCoordinates =  0.000  0.468  2.129  2.241  2.349  2.577  2.909  3.135  3.534  3.674  3.747  5.060  5.577
	zCoordinates =  0.020 -0.270 -0.960 -1.320 -1.620 -1.830 -1.960 -1.920 -1.720 -1.310 -1.010 -0.300 -0.030
	sectionCount = 1
	frictionIds = Strickler_35.0
	frictionPositions =  0.000  5.577

[definition]
	id = 20080820-6
	type = yz
	thalweg = 3.269
	yzCount = 13
	yCoordinates =  0.000  0.431  1.691  1.946  2.086  2.966  3.237  3.607  4.270  4.482  4.657  5.830  6.182
	zCoordinates = -0.060 -0.260 -1.150 -1.360 -1.570 -1.920 -1.980 -1.950 -1.570 -1.370 -1.160 -0.210  0.160
	sectionCount = 1
	frictionIds = Strickler_35.0
	frictionPositions =  0.000  6.182

[definition]
	id = CARLSON_BW_71494
	type = yz
	thalweg = 2.518
	yzCount = 11
	yCoordinates =  0.000  0.684  1.141  1.298  1.919  2.543  3.128  4.014  4.109  5.131  5.999
	zCoordinates = -0.334 -0.663 -1.172 -1.364 -1.601 -1.705 -1.570 -1.327 -1.168 -0.310  0.171
	sectionCount = 1
	frictionIds = Strickler_35.0
	frictionPositions =  0.000  5.999

[definition]
	id = CARLSON_BW_71495
	type = yz
	thalweg = 2.485
	yzCount = 8
	yCoordinates =  0.000  0.443  1.181  1.602  1.695  2.248  2.606  3.030
	zCoordinates = -0.489 -0.990 -1.036 -1.158 -1.332 -1.681 -1.704 -1.662
	sectionCount = 1
	frictionIds = Strickler_35.0
	frictionPositions =  0.000  3.030

[definition]
	id = CARLSON_BW_71496
	type = yz
	thalweg = 1.892
	yzCount = 10
	yCoordinates =  0.000  0.651  0.653  1.262  1.792  2.413  2.894  3.056  4.141  5.023
	zCoordinates = -0.756 -1.191 -1.303 -1.630 -1.675 -1.620 -1.353 -1.188 -0.401  0.102
	sectionCount = 1
	frictionIds = Strickler_35.0
	frictionPositions =  0.000  5.023

[definition]
	id = CARLSON_BW_71497
	type = yz
	thalweg = 1.569
	yzCount = 11
	yCoordinates =  0.000  0.414  0.697  0.730  1.323  1.844  2.334  2.822  3.048  3.766  4.265
	zCoordinates = -0.602 -0.889 -1.153 -1.406 -1.624 -1.639 -1.620 -1.338 -1.157 -0.539 -0.168
	sectionCount = 1
	frictionIds = Strickler_35.0
	frictionPositions =  0.000  4.265

[definition]
	id = CARLSON_BW_71498
	type = yz
	thalweg = 2.169
	yzCount = 11
	yCoordinates =  0.000  0.698  1.408  1.536  1.951  2.393  2.781  3.137  3.323  4.018  4.632
	zCoordinates = -0.355 -0.767 -1.153 -1.341 -1.573 -1.624 -1.515 -1.378 -1.159 -0.557 -0.212
	sectionCount = 1
	frictionIds = Strickler_35.0
	frictionPositions =  0.000  4.632

[definition]
	id = DP20140225-03
	type = yz
	thalweg = 3.318
	yzCount = 12
	yCoordinates =  0.000  0.864  1.000  1.210  2.080  3.037  4.192  5.072  5.708  5.917  6.217  6.905
	zCoordinates = -2.750 -3.250 -3.620 -3.890 -4.130 -4.760 -4.720 -4.200 -3.880 -3.620 -3.110 -2.800
	sectionCount = 1
	frictionIds = Strickler_35.0
	frictionPositions =  0.000  6.905

[definition]
	id = DP20140225-08
	type = yz
	thalweg = 3.484
	yzCount = 12
	yCoordinates =  0.000  0.854  1.304  1.643  2.422  3.235  4.176  4.862  5.614  6.299  6.940  7.338
	zCoordinates = -2.960 -3.510 -3.920 -4.020 -4.320 -4.490 -4.470 -4.300 -4.090 -3.940 -3.210 -3.020
	sectionCount = 1
	frictionIds = Strickler_35.0
	frictionPositions =  0.000  7.338

[definition]
	id = DP20140225-09
	type = yz
	thalweg = 3.842
	yzCount = 13
	yCoordinates =  0.000  0.710  1.122  1.315  2.049  2.919  3.840  4.582  5.352  5.884  6.184  6.849  7.232
	zCoordinates = -2.820 -3.250 -3.890 -3.960 -4.180 -4.690 -4.660 -4.450 -4.240 -4.050 -3.880 -3.310 -3.090
	sectionCount = 1
	frictionIds = Strickler_35.0
	frictionPositions =  0.000  7.232

[definition]
	id = DP20140227-04
	type = yz
	thalweg = 2.557
	yzCount = 12
	yCoordinates =  0.000  0.765  1.187  1.340  2.134  2.825  3.417  4.167  4.964  5.126  5.715  6.217
	zCoordinates = -3.080 -3.470 -3.830 -4.010 -4.240 -4.600 -4.630 -4.360 -4.040 -3.830 -3.310 -3.030
	sectionCount = 1
	frictionIds = Strickler_35.0
	frictionPositions =  0.000  6.217

[definition]
	id = TB0028-160608133002
	type = yz
	thalweg = 3.221
	yzCount = 11
	yCoordinates =  0.000  0.664  1.758  2.341  2.964  3.452  3.805  4.291  4.869  5.771  6.234
	zCoordinates =  0.414 -0.008 -0.945 -1.402 -1.763 -1.764 -1.683 -1.346 -0.899 -0.135  0.348
	sectionCount = 1
	frictionIds = Strickler_35.0
	frictionPositions =  0.000  6.234

[definition]
	id = TB0028-160608134334
	type = yz
	thalweg = 3.379
	yzCount = 11
	yCoordinates =  0.000  0.560  2.096  3.190  3.514  3.823  4.013  4.323  4.685  6.276  7.558
	zCoordinates =  0.480 -0.025 -0.945 -1.625 -1.604 -1.735 -1.840 -1.535 -0.993 -0.170  0.428
	sectionCount = 1
	frictionIds = Strickler_35.0
	frictionPositions =  0.000  7.558

[definition]
	id = TB0028-160613143818
	type = yz
	thalweg = 4.213
	yzCount = 12
	yCoordinates =  0.000  0.888  2.335  2.345  3.245  4.100  4.942  5.881  5.916  6.224  7.381  7.867
	zCoordinates = -2.121 -2.602 -3.312 -4.094 -4.217 -4.541 -4.294 -4.132 -3.327 -3.197 -2.427 -2.119
	sectionCount = 1
	frictionIds = Strickler_35.0
	frictionPositions =  0.000  7.867

[definition]
	id = TB0028-160614092134
	type = yz
	thalweg = 6.251
	yzCount = 13
	yCoordinates =  0.000  0.565  1.872  2.134  3.891  5.381  6.344  7.343  9.177 10.469 11.139 12.362 13.052
	zCoordinates = -1.959 -2.345 -3.145 -3.812 -4.440 -4.851 -4.787 -4.694 -4.209 -3.899 -3.180 -2.179 -1.734
	sectionCount = 1
	frictionIds = Strickler_35.0
	frictionPositions =  0.000 13.052

[definition]
	id = TB0028-160614094537
	type = yz
	thalweg = 9.187
	yzCount = 16
	yCoordinates =  0.000  0.824  2.143  3.304  3.446  5.182  6.740  8.166 10.089 11.754 13.730 15.498 17.268 17.285 18.053 18.404
	zCoordinates = -1.699 -2.164 -2.847 -3.486 -4.056 -4.610 -5.263 -5.517 -5.551 -5.410 -4.970 -4.452 -4.045 -3.127 -2.780 -2.588
	sectionCount = 1
	frictionIds = Strickler_35.0
	frictionPositions =  0.000 18.404

[definition]
	id = TB0028-160614100305
	type = yz
	thalweg = 9.783
	yzCount = 15
	yCoordinates =  0.000  0.839  1.998  2.888  4.487  6.351  7.880  9.401 10.723 12.320 14.212 16.204 16.243 16.891 17.491
	zCoordinates = -2.421 -2.750 -3.257 -3.982 -4.662 -5.417 -5.473 -5.582 -5.992 -5.245 -4.713 -4.100 -3.161 -2.886 -2.594
	sectionCount = 1
	frictionIds = Strickler_35.0
	frictionPositions =  0.000 17.491

[definition]
	id = TB0028-160614101821
	type = yz
	thalweg = 8.6
	yzCount = 15
	yCoordinates =  0.000  0.776  1.937  2.555  4.110  5.951  7.833  9.251 10.573 12.158 13.858 15.956 16.091 17.047 17.682
	zCoordinates = -2.493 -2.816 -3.361 -4.091 -4.745 -5.261 -5.483 -5.453 -5.618 -5.434 -4.903 -4.019 -3.156 -2.725 -2.330
	sectionCount = 1
	frictionIds = Strickler_35.0
	frictionPositions =  0.000 17.682

[definition]
	id = TB0028-160614110029
	type = yz
	thalweg = 8.555
	yzCount = 14
	yCoordinates =  0.000  0.491  1.675  2.210  3.901  5.417  7.102  8.610 10.103 12.149 13.353 14.892 14.932 15.552
	zCoordinates = -2.892 -3.079 -3.400 -4.151 -4.591 -5.182 -5.178 -5.214 -5.095 -5.018 -4.703 -4.301 -3.264 -3.128
	sectionCount = 1
	frictionIds = Strickler_35.0
	frictionPositions =  0.000 15.552

[definition]
	id = TB0028-160614111052
	type = yz
	thalweg = 8.279
	yzCount = 16
	yCoordinates =  0.000  0.775  1.787  2.366  2.387  3.490  5.269  6.696  8.407  9.961 11.840 13.299 15.032 15.135 16.101 16.662
	zCoordinates = -2.518 -2.778 -3.196 -3.435 -4.147 -4.512 -4.898 -5.370 -5.554 -5.641 -5.240 -4.709 -4.225 -3.213 -2.717 -2.436
	sectionCount = 1
	frictionIds = Strickler_35.0
	frictionPositions =  0.000 16.662

[definition]
	id = TB0028-160614113003
	type = yz
	thalweg = 9.037
	yzCount = 15
	yCoordinates =  0.000  0.833  1.735  2.815  4.113  5.672  7.448  9.232 10.752 12.303 13.929 15.210 15.217 16.613 17.040
	zCoordinates = -2.498 -2.829 -3.113 -4.094 -4.512 -5.433 -5.409 -5.567 -5.630 -5.128 -4.684 -4.210 -3.171 -2.567 -2.307
	sectionCount = 1
	frictionIds = Strickler_35.0
	frictionPositions =  0.000 17.040

[definition]
	id = TB0028-160614114327
	type = yz
	thalweg = 7.519
	yzCount = 13
	yCoordinates =  0.000  0.811  2.217  2.387  3.817  5.701  7.444  9.321 11.168 12.699 13.016 14.168 15.021
	zCoordinates = -2.260 -2.591 -3.194 -4.050 -4.554 -5.297 -5.432 -5.329 -4.660 -3.951 -3.116 -2.555 -2.125
	sectionCount = 1
	frictionIds = Strickler_35.0
	frictionPositions =  0.000 15.021

[definition]
	id = TB0028-160614124202
	type = yz
	thalweg = 7.268
	yzCount = 13
	yCoordinates =  0.000  0.679  1.771  2.769  4.154  6.017  7.385  9.083 10.550 12.458 12.757 14.787 15.352
	zCoordinates = -1.361 -1.885 -2.684 -3.863 -4.338 -4.882 -4.829 -4.846 -4.678 -3.865 -3.170 -1.749 -1.335
	sectionCount = 1
	frictionIds = Strickler_35.0
	frictionPositions =  0.000 15.352

[definition]
	id = TB0028-160614131524
	type = yz
	thalweg = 6.266
	yzCount = 13
	yCoordinates =  0.000  0.568  1.174  1.583  2.927  4.828  6.791  8.210  9.434 11.265 11.493 12.217 12.757
	zCoordinates = -1.750 -2.076 -2.746 -3.428 -4.163 -4.836 -4.974 -5.066 -5.047 -3.825 -2.836 -2.348 -2.061
	sectionCount = 1
	frictionIds = Strickler_35.0
	frictionPositions =  0.000 12.757

[definition]
	id = TB0028-160615091700
	type = yz
	thalweg = 6.673
	yzCount = 13
	yCoordinates =  0.000  0.605  1.434  1.457  3.063  4.458  6.657  8.609  9.931 11.920 12.000 12.922 13.568
	zCoordinates = -2.023 -2.456 -2.933 -3.963 -4.760 -4.996 -5.035 -4.973 -4.116 -3.005 -3.757 -2.251 -1.836
	sectionCount = 1
	frictionIds = Strickler_35.0
	frictionPositions =  0.000 13.568

[definition]
	id = TB0028-160615094742
	type = yz
	thalweg = 5.708
	yzCount = 14
	yCoordinates =  0.000  0.387  1.130  1.287  2.689  4.107  6.135  8.114  9.528 10.738 11.158 11.496 12.205 12.509
	zCoordinates = -2.180 -2.456 -3.001 -3.810 -4.332 -4.617 -4.690 -4.543 -3.975 -3.815 -2.939 -2.761 -2.305 -2.074
	sectionCount = 1
	frictionIds = Strickler_35.0
	frictionPositions =  0.000 12.509

[definition]
	id = TB0028-160615111909
	type = yz
	thalweg = 5.194
	yzCount = 13
	yCoordinates =  0.000  0.600  1.300  1.471  2.843  3.899  5.165  6.328  7.726  9.197  9.750 10.602 11.163
	zCoordinates = -2.272 -2.528 -2.944 -3.760 -4.409 -4.578 -4.567 -4.632 -3.949 -3.225 -2.846 -2.282 -2.014
	sectionCount = 1
	frictionIds = Strickler_35.0
	frictionPositions =  0.000 11.163

[definition]
	id = TB0028-160616132314
	type = yz
	thalweg = 3.104
	yzCount = 11
	yCoordinates =  0.000  0.655  1.977  2.578  2.836  3.106  3.273  3.535  3.860  4.867  5.565
	zCoordinates =  0.129 -0.387 -1.140 -1.725 -1.844 -1.839 -1.806 -1.719 -1.382 -0.751 -0.248
	sectionCount = 1
	frictionIds = Strickler_35.0
	frictionPositions =  0.000  5.565

[definition]
	id = TB0028-160616133827
	type = yz
	thalweg = 1.994
	yzCount = 9
	yCoordinates =  0.000  0.228  1.418  1.880  1.998  2.144  2.434  3.720  4.370
	zCoordinates =  0.702  0.069 -0.737 -1.064 -1.076 -1.070 -0.700  0.259  0.615
	sectionCount = 1
	frictionIds = Strickler_35.0
	frictionPositions =  0.000  4.370

[definition]
	id = TB0028-160616140922
	type = yz
	thalweg = 2.278
	yzCount = 11
	yCoordinates =  0.000  0.558  1.564  1.811  2.088  2.270  2.523  2.740  3.033  3.738  4.415
	zCoordinates = -1.742 -2.002 -2.755 -3.071 -3.234 -3.251 -3.223 -3.111 -2.699 -2.222 -1.726
	sectionCount = 1
	frictionIds = Strickler_35.0
	frictionPositions =  0.000  4.415

[definition]
	id = TB0028-160622101429
	type = yz
	thalweg = 3.557
	yzCount = 11
	yCoordinates =  0.000  0.350  0.967  1.364  2.525  3.365  4.138  5.272  5.635  6.241  6.626
	zCoordinates = -0.076 -0.320 -0.793 -1.372 -2.049 -2.161 -2.102 -1.387 -1.000 -0.446 -0.094
	sectionCount = 1
	frictionIds = Strickler_35.0
	frictionPositions =  0.000  6.626

[definition]
	id = TB0028-160622111531
	type = yz
	thalweg = 2.999
	yzCount = 11
	yCoordinates =  0.000  0.450  0.942  1.295  2.352  3.064  3.736  4.808  5.120  5.774  6.053
	zCoordinates = -0.215 -0.623 -0.990 -1.481 -1.928 -1.964 -1.840 -1.402 -0.914 -0.225  0.008
	sectionCount = 1
	frictionIds = Strickler_35.0
	frictionPositions =  0.000  6.053

[definition]
	id = TB0028-160627102359
	type = yz
	thalweg = 3.465
	yzCount = 11
	yCoordinates =  0.000  0.379  0.969  1.330  2.629  3.208  4.079  5.122  5.544  6.044  6.387
	zCoordinates = -0.319 -0.597 -1.119 -1.519 -1.885 -1.922 -1.744 -1.452 -0.914 -0.507 -0.266
	sectionCount = 1
	frictionIds = Strickler_35.0
	frictionPositions =  0.000  6.387

[definition]
	id = TB0028-160628122405
	type = yz
	thalweg = 3.772
	yzCount = 11
	yCoordinates =  0.000  0.382  1.127  1.295  2.581  3.717  4.937  6.215  6.448  7.185  7.654
	zCoordinates = -2.020 -2.265 -2.654 -3.786 -4.275 -4.504 -4.376 -3.628 -2.626 -2.321 -2.077
	sectionCount = 1
	frictionIds = Strickler_35.0
	frictionPositions =  0.000  7.654

[definition]
	id = TB0028-160704110636
	type = yz
	thalweg = 5.007
	yzCount = 13
	yCoordinates =  0.000  0.379  0.738  1.102  2.390  3.794  5.020  6.012  7.363  8.620  8.878  9.627 10.162
	zCoordinates = -2.552 -2.806 -3.260 -3.779 -4.314 -4.942 -4.892 -4.757 -4.138 -3.680 -3.275 -2.726 -2.444
	sectionCount = 1
	frictionIds = Strickler_35.0
	frictionPositions =  0.000 10.162

[definition]
	id = TB0028-180904110737
	type = yz
	thalweg = 4.158
	yzCount = 11
	yCoordinates =  0.000  0.561  2.475  3.060  3.575  3.869  4.221  4.626  5.040  5.645  6.024
	zCoordinates = -0.451 -0.719 -2.122 -2.616 -3.221 -3.244 -3.163 -2.613 -2.190 -1.723 -1.394
	sectionCount = 1
	frictionIds = Strickler_35.0
	frictionPositions =  0.000  6.024

[definition]
	id = TB0028-180904113148
	type = yz
	thalweg = 4.293
	yzCount = 12
	yCoordinates =  0.000  0.838  2.385  3.395  3.955  4.256  4.429  4.673  4.884  5.452  6.308  6.694
	zCoordinates =  0.119 -0.492 -1.435 -2.136 -2.588 -2.857 -2.957 -2.854 -2.621 -2.075 -1.124 -0.793
	sectionCount = 1
	frictionIds = Strickler_35.0
	frictionPositions =  0.000  6.694

[definition]
	id = PRO_KBR-A-00001
	type = zw
	thalweg = 0.0
	numLevels = 2
	levels = 0 100
	flowWidths = 1.20 201.20
	totalWidths = 1.20 201.20
	frictionId = Strickler_15.0

[definition]
	id = PRO_KBR-A-00002
	type = zw
	thalweg = 0.0
	numLevels = 2
	levels = 0 100
	flowWidths = 10.79 210.79
	totalWidths = 10.79 210.79
	frictionId = Strickler_15.0

[definition]
	id = PRO_KBR-A-00003
	type = zw
	thalweg = 0.0
	numLevels = 2
	levels = 0 100
	flowWidths = 1.00 201.00
	totalWidths = 1.00 201.00
	frictionId = Strickler_15.0

[definition]
	id = PRO_KBR-A-00004
	type = zw
	thalweg = 0.0
	numLevels = 2
	levels = 0 100
	flowWidths = 3.00 203.00
	totalWidths = 3.00 203.00
	frictionId = Strickler_15.0

[definition]
	id = PRO_KBR-A-00005
	type = zw
	thalweg = 0.0
	numLevels = 2
	levels = 0 100
	flowWidths = 3.00 203.00
	totalWidths = 3.00 203.00
	frictionId = Strickler_15.0

[definition]
	id = PRO_KBR-A-00006
	type = zw
	thalweg = 0.0
	numLevels = 2
	levels = 0 100
	flowWidths = 1.00 201.00
	totalWidths = 1.00 201.00
	frictionId = Strickler_15.0

[definition]
	id = PRO_KBR-A-00007
	type = zw
	thalweg = 0.0
	numLevels = 2
	levels = 0 100
	flowWidths = 1.00 201.00
	totalWidths = 1.00 201.00
	frictionId = Strickler_15.0

[definition]
	id = PRO_KBR-A-00008
	type = zw
	thalweg = 0.0
	numLevels = 2
	levels = 0 100
	flowWidths = 22.00 222.00
	totalWidths = 22.00 222.00
	frictionId = Strickler_15.0

[definition]
	id = PRO_KBR-A-00009
	type = zw
	thalweg = 0.0
	numLevels = 2
	levels = 0 100
	flowWidths = 1.00 201.00
	totalWidths = 1.00 201.00
	frictionId = Strickler_15.0

[definition]
	id = PRO_KBR-A-00010
	type = zw
	thalweg = 0.0
	numLevels = 2
	levels = 0 100
	flowWidths = 6.84 206.84
	totalWidths = 6.84 206.84
	frictionId = Strickler_15.0

[definition]
	id = PRO_KBR-A-00011
	type = zw
	thalweg = 0.0
	numLevels = 2
	levels = 0 100
	flowWidths = 7.11 207.11
	totalWidths = 7.11 207.11
	frictionId = Strickler_15.0

[definition]
	id = PRO_KBR-A-00012
	type = zw
	thalweg = 0.0
	numLevels = 2
	levels = 0 100
	flowWidths = 6.83 206.83
	totalWidths = 6.83 206.83
	frictionId = Strickler_15.0

[definition]
	id = PRO_KBR-A-00013
	type = zw
	thalweg = 0.0
	numLevels = 2
	levels = 0 100
	flowWidths = 6.99 206.99
	totalWidths = 6.99 206.99
	frictionId = Strickler_15.0

[definition]
	id = PRO_KBR-A-00014
	type = zw
	thalweg = 0.0
	numLevels = 2
	levels = 0 100
	flowWidths = 1.20 201.20
	totalWidths = 1.20 201.20
	frictionId = Strickler_15.0

[definition]
	id = PRO_KBR-A-00015
	type = zw
	thalweg = 0.0
	numLevels = 2
	levels = 0 100
	flowWidths = 20.76 220.76
	totalWidths = 20.76 220.76
	frictionId = Strickler_15.0

[definition]
	id = PRO_KBR-A-00016
	type = zw
	thalweg = 0.0
	numLevels = 2
	levels = 0 100
	flowWidths = 1.00 201.00
	totalWidths = 1.00 201.00
	frictionId = Strickler_15.0

[definition]
	id = PRO_KBR-A-00017
	type = zw
	thalweg = 0.0
	numLevels = 2
	levels = 0 100
	flowWidths = 10.15 210.15
	totalWidths = 10.15 210.15
	frictionId = Strickler_15.0

[definition]
	id = PRO_KBR-A-00018
	type = zw
	thalweg = 0.0
	numLevels = 2
	levels = 0 100
	flowWidths = 11.38 211.38
	totalWidths = 11.38 211.38
	frictionId = Strickler_15.0

[definition]
	id = PRO_KBR-A-00019
	type = zw
	thalweg = 0.0
	numLevels = 2
	levels = 0 100
	flowWidths = 12.91 212.91
	totalWidths = 12.91 212.91
	frictionId = Strickler_15.0

[definition]
	id = PRO_KBR-A-00020
	type = zw
	thalweg = 0.0
	numLevels = 2
	levels = 0 100
	flowWidths = 7.15 207.15
	totalWidths = 7.15 207.15
	frictionId = Strickler_15.0

[definition]
	id = PRO_KBR-A-00021
	type = zw
	thalweg = 0.0
	numLevels = 2
	levels = 0 100
	flowWidths = 8.90 208.90
	totalWidths = 8.90 208.90
	frictionId = Strickler_15.0

[definition]
	id = PRO_KBR-A-00023
	type = zw
	thalweg = 0.0
	numLevels = 2
	levels = 0 100
	flowWidths = 16.25 216.25
	totalWidths = 16.25 216.25
	frictionId = Strickler_15.0

[definition]
	id = PRO_KBR-A-00024
	type = zw
	thalweg = 0.0
	numLevels = 2
	levels = 0 100
	flowWidths = 6.18 206.18
	totalWidths = 6.18 206.18
	frictionId = Strickler_15.0

[definition]
	id = PRO_KBR-A-00025
	type = zw
	thalweg = 0.0
	numLevels = 2
	levels = 0 100
	flowWidths = 7.26 207.26
	totalWidths = 7.26 207.26
[...]
	type = zw
	thalweg = 0.0
	numLevels = 2
	levels = 0 100
	flowWidths = 7.00 207.00
	totalWidths = 7.00 207.00
	frictionId = Strickler_15.0

[definition]
	id = PRO_KBR-W-00404
	type = zw
	thalweg = 0.0
	numLevels = 2
	levels = 0 100
	flowWidths = 17.55 217.55
	totalWidths = 17.55 217.55
	frictionId = Strickler_15.0

[definition]
	id = PRO_KBR-W-00405
	type = zw
	thalweg = 0.0
	numLevels = 2
	levels = 0 100
	flowWidths = 6.80 206.80
	totalWidths = 6.80 206.80
	frictionId = Strickler_15.0

[definition]
	id = PRO_KBR-W-00406
	type = zw
	thalweg = 0.0
	numLevels = 2
	levels = 0 100
	flowWidths = 5.70 205.70
	totalWidths = 5.70 205.70
	frictionId = Strickler_15.0

[definition]
	id = PRO_KBR-W-00407
	type = zw
	thalweg = 0.0
	numLevels = 2
	levels = 0 100
	flowWidths = 7.50 207.50
	totalWidths = 7.50 207.50
	frictionId = Strickler_15.0

[definition]
	id = PRO_KBR-W-00408
	type = zw
	thalweg = 0.0
	numLevels = 2
	levels = 0 100
	flowWidths = 1.00 201.00
	totalWidths = 1.00 201.00
	frictionId = Strickler_15.0

[definition]
	id = PRO_KBR-W-00410
	type = zw
	thalweg = 0.0
	numLevels = 2
	levels = 0 100
	flowWidths = 1.00 201.00
	totalWidths = 1.00 201.00
	frictionId = Strickler_15.0

[definition]
	id = PRO_KBR-W-00411
	type = zw
	thalweg = 0.0
	numLevels = 2
	levels = 0 100
	flowWidths = 10.00 210.00
	totalWidths = 10.00 210.00
	frictionId = Strickler_15.0

[definition]
	id = PRO_KBR-W-00412
	type = zw
	thalweg = 0.0
	numLevels = 2
	levels = 0 100
	flowWidths = 5.80 205.80
	totalWidths = 5.80 205.80
	frictionId = Strickler_15.0

[definition]
	id = PRO_KBR-W-00413
	type = zw
	thalweg = 0.0
	numLevels = 2
	levels = 0 100
	flowWidths = 6.00 206.00
	totalWidths = 6.00 206.00
	frictionId = Strickler_15.0

[definition]
	id = PRO_KBR-W-00414
	type = zw
	thalweg = 0.0
	numLevels = 2
	levels = 0 100
	flowWidths = 5.85 205.85
	totalWidths = 5.85 205.85
	frictionId = Strickler_15.0

[definition]
	id = PRO_KBR-W-00415
	type = zw
	thalweg = 0.0
	numLevels = 2
	levels = 0 100
	flowWidths = 1.00 201.00
	totalWidths = 1.00 201.00
	frictionId = Strickler_15.0

[definition]
	id = PRO_KBR-W-00416
	type = zw
	thalweg = 0.0
	numLevels = 2
	levels = 0 100
	flowWidths = 7.32 207.32
	totalWidths = 7.32 207.32
	frictionId = Strickler_15.0

[definition]
	id = PRO_KBR-W-00417
	type = zw
	thalweg = 0.0
	numLevels = 2
	levels = 0 100
	flowWidths = 6.00 206.00
	totalWidths = 6.00 206.00
	frictionId = Strickler_15.0

[definition]
	id = PRO_KBR-W-00418
	type = zw
	thalweg = 0.0
	numLevels = 2
	levels = 0 100
	flowWidths = 7.50 207.50
	totalWidths = 7.50 207.50
	frictionId = Strickler_15.0

[definition]
	id = PRO_KBR-W-00419
	type = zw
	thalweg = 0.0
	numLevels = 2
	levels = 0 100
	flowWidths = 5.95 205.95
	totalWidths = 5.95 205.95
	frictionId = Strickler_15.0

[definition]
	id = PRO_KBR-W-00420
	type = zw
	thalweg = 0.0
	numLevels = 2
	levels = 0 100
	flowWidths = 6.00 206.00
	totalWidths = 6.00 206.00
	frictionId = Strickler_15.0

[definition]
	id = PRO_KBR-W-00421
	type = zw
	thalweg = 0.0
	numLevels = 2
	levels = 0 100
	flowWidths = 6.00 206.00
	totalWidths = 6.00 206.00
	frictionId = Strickler_15.0

[definition]
	id = PRO_KBR-W-00422
	type = zw
	thalweg = 0.0
	numLevels = 2
	levels = 0 100
	flowWidths = 7.00 207.00
	totalWidths = 7.00 207.00
	frictionId = Strickler_15.0

[definition]
	id = PRO_KBR-W-00423
	type = zw
	thalweg = 0.0
	numLevels = 2
	levels = 0 100
	flowWidths = 1.00 201.00
	totalWidths = 1.00 201.00
	frictionId = Strickler_15.0

[definition]
	id = PRO_KBR-W-00424
	type = zw
	thalweg = 0.0
	numLevels = 2
	levels = 0 100
	flowWidths = 26.50 226.50
	totalWidths = 26.50 226.50
	frictionId = Strickler_15.0

[definition]
	id = PRO_KBR-W-00425
	type = zw
	thalweg = 0.0
	numLevels = 2
	levels = 0 100
	flowWidths = 1.00 201.00
	totalWidths = 1.00 201.00
	frictionId = Strickler_15.0

[definition]
	id = PRO_KBR-W-00426
	type = zw
	thalweg = 0.0
	numLevels = 2
	levels = 0 100
	flowWidths = 10.00 210.00
	totalWidths = 10.00 210.00
	frictionId = Strickler_15.0

[definition]
	id = PRO_KBR-W-00427
	type = zw
	thalweg = 0.0
	numLevels = 2
	levels = 0 100
	flowWidths = 6.00 206.00
	totalWidths = 6.00 206.00
	frictionId = Strickler_15.0

[definition]
	id = PRO_KBR-W-00428
	type = zw
	thalweg = 0.0
	numLevels = 2
	levels = 0 100
	flowWidths = 6.00 206.00
	totalWidths = 6.00 206.00
	frictionId = Strickler_15.0

[definition]
	id = PRO_KBR-W-00429
	type = zw
	thalweg = 0.0
	numLevels = 2
	levels = 0 100
	flowWidths = 6.00 206.00
	totalWidths = 6.00 206.00
	frictionId = Strickler_15.0

[definition]
	id = PRO_KBR-W-00430
	type = zw
	thalweg = 0.0
	numLevels = 2
	levels = 0 100
	flowWidths = 6.00 206.00
	totalWidths = 6.00 206.00
	frictionId = Strickler_15.0

[definition]
	id = PRO_KBR-W-00431
	type = zw
	thalweg = 0.0
	numLevels = 2
	levels = 0 100
	flowWidths = 15.00 215.00
	totalWidths = 15.00 215.00
	frictionId = Strickler_15.0

[definition]
	id = PRO_KBR-W-00432
	type = zw
	thalweg = 0.0
	numLevels = 2
	levels = 0 100
	flowWidths = 1.00 201.00
	totalWidths = 1.00 201.00
	frictionId = Strickler_15.0

[definition]
	id = PRO_KBR-W-00433
	type = zw
	thalweg = 0.0
	numLevels = 2
	levels = 0 100
	flowWidths = 9.20 209.20
	totalWidths = 9.20 209.20
	frictionId = Strickler_15.0

[definition]
	id = PRO_KBR-W-00435
	type = zw
	thalweg = 0.0
	numLevels = 2
	levels = 0 100
	flowWidths = 4.00 204.00
	totalWidths = 4.00 204.00
	frictionId = Strickler_15.0

[definition]
	id = PRO_KBR-W-00438
	type = zw
	thalweg = 0.0
	numLevels = 2
	levels = 0 100
	flowWidths = 5.75 205.75
	totalWidths = 5.75 205.75
	frictionId = Strickler_15.0

[definition]
	id = PRO_KBR-W-00439
	type = zw
	thalweg = 0.0
	numLevels = 2
	levels = 0 100
	flowWidths = 1.00 201.00
	totalWidths = 1.00 201.00
	frictionId = Strickler_15.0

[definition]
	id = PRO_KBR-W-00441
	type = zw
	thalweg = 0.0
	numLevels = 2
	levels = 0 100
	flowWidths = 1.00 201.00
	totalWidths = 1.00 201.00
	frictionId = Strickler_15.0

[definition]
	id = PRO_KBR-W-00442
	type = zw
	thalweg = 0.0
	numLevels = 2
	levels = 0 100
	flowWidths = 1.00 201.00
	totalWidths = 1.00 201.00
	frictionId = Strickler_15.0

[definition]
	id = PRO_KBR-W-00443
	type = zw
	thalweg = 0.0
	numLevels = 2
	levels = 0 100
	flowWidths = 1.00 201.00
	totalWidths = 1.00 201.00
	frictionId = Strickler_15.0

[definition]
	id = PRO_KBR-W-00444
	type = zw
	thalweg = 0.0
	numLevels = 2
	levels = 0 100
	flowWidths = 7.60 207.60
	totalWidths = 7.60 207.60
	frictionId = Strickler_15.0

[definition]
	id = PRO_KBR-W-00445
	type = zw
	thalweg = 0.0
	numLevels = 2
	levels = 0 100
	flowWidths = 9.10 209.10
	totalWidths = 9.10 209.10
	frictionId = Strickler_15.0

[definition]
	id = PRO_KBR-W-00446
	type = zw
	thalweg = 0.0
	numLevels = 2
	levels = 0 100
	flowWidths = 9.80 209.80
	totalWidths = 9.80 209.80
	frictionId = Strickler_15.0

[definition]
	id = PRO_KBR-W-00447
	type = zw
	thalweg = 0.0
	numLevels = 2
	levels = 0 100
	flowWidths = 1.80 201.80
	totalWidths = 1.80 201.80
	frictionId = Strickler_15.0

[definition]
	id = PRO_KBR-W-00448
	type = zw
	thalweg = 0.0
	numLevels = 2
	levels = 0 100
	flowWidths = 1.00 201.00
	totalWidths = 1.00 201.00
	frictionId = Strickler_15.0

[definition]
	id = PRO_KBR-W-00449
	type = zw
	thalweg = 0.0
	numLevels = 2
	levels = 0 100
	flowWidths = 15.00 215.00
	totalWidths = 15.00 215.00
	frictionId = Strickler_15.0

[definition]
	id = PRO_KBR-W-00466
	type = zw
	thalweg = 0.0
	numLevels = 2
	levels = 0 100
	flowWidths = 1.00 201.00
	totalWidths = 1.00 201.00
	frictionId = Strickler_15.0

[definition]
	id = PRO_KBR-W-00467
	type = zw
	thalweg = 0.0
	numLevels = 2
	levels = 0 100
	flowWidths = 1.00 201.00
	totalWidths = 1.00 201.00
	frictionId = Strickler_15.0

[definition]
	id = PRO_KBR-W-00468
	type = zw
	thalweg = 0.0
	numLevels = 2
	levels = 0 100
	flowWidths = 1.00 201.00
	totalWidths = 1.00 201.00
	frictionId = Strickler_15.0

[definition]
	id = PRO_KBR-W-00469
	type = zw
	thalweg = 0.0
	numLevels = 2
	levels = 0 100
	flowWidths = 1.00 201.00
	totalWidths = 1.00 201.00
	frictionId = Strickler_15.0

[definition]
	id = PRO_KBR-W-00470
	type = zw
	thalweg = 0.0
	numLevels = 2
	levels = 0 100
	flowWidths = 1.00 201.00
	totalWidths = 1.00 201.00
	frictionId = Strickler_15.0

[definition]
	id = PRO_KBR-W-00471
	type = zw
	thalweg = 0.0
	numLevels = 2
	levels = 0 100
	flowWidths = 1.00 201.00
	totalWidths = 1.00 201.00
	frictionId = Strickler_15.0

[definition]
	id = PRO_KBR-W-00472
	type = zw
	thalweg = 0.0
	numLevels = 2
	levels = 0 100
	flowWidths = 1.00 201.00
	totalWidths = 1.00 201.00
	frictionId = Strickler_15.0

[definition]
	id = PRO_KBR-W-00473
	type = zw
	thalweg = 0.0
	numLevels = 2
	levels = 0 100
	flowWidths = 1.00 201.00
	totalWidths = 1.00 201.00
	frictionId = Strickler_15.0

[definition]
	id = PRO_KBR-W-00474
	type = zw
	thalweg = 0.0
	numLevels = 2
	levels = 0 100
	flowWidths = 10.00 210.00
	totalWidths = 10.00 210.00
	frictionId = Strickler_15.0

[definition]
	id = PRO_KBR-W-00475
	type = zw
	thalweg = 0.0
	numLevels = 2
	levels = 0 100
	flowWidths = 5.00 205.00
	totalWidths = 5.00 205.00
	frictionId = Strickler_15.0

[definition]
	id = PRO_KBR-W-00476
	type = zw
	thalweg = 0.0
	numLevels = 2
	levels = 0 100
	flowWidths = 1.00 201.00
	totalWidths = 1.00 201.00
	frictionId = Strickler_15.0

[definition]
	id = PRO_KBR-W-00477
	type = zw
	thalweg = 0.0
	numLevels = 2
	levels = 0 100
	flowWidths = 1.00 201.00
	totalWidths = 1.00 201.00
	frictionId = Strickler_15.0

[definition]
	id = PRO_KBR-W-00478
	type = zw
	thalweg = 0.0
	numLevels = 2
	levels = 0 100
	flowWidths = 1.00 201.00
	totalWidths = 1.00 201.00
	frictionId = Strickler_15.0

[definition]
	id = PRO_KBR-W-00479
	type = zw
	thalweg = 0.0
	numLevels = 2
	levels = 0 100
	flowWidths = 1.00 201.00
	totalWidths = 1.00 201.00
	frictionId = Strickler_15.0

[definition]
	id = PRO_KBR-W-00480
	type = zw
	thalweg = 0.0
	numLevels = 2
	levels = 0 100
	flowWidths = 1.00 201.00
	totalWidths = 1.00 201.00
	frictionId = Strickler_15.0

[definition]
	id = PRO_KBR-W-00481
	type = zw
	thalweg = 0.0
	numLevels = 2
	levels = 0 100
	flowWidths = 1.00 201.00
	totalWidths = 1.00 201.00
	frictionId = Strickler_15.0

[definition]
	id = PRO_KBR-W-00482
	type = zw
	thalweg = 0.0
	numLevels = 2
	levels = 0 100
	flowWidths = 1.00 201.00
	totalWidths = 1.00 201.00
	frictionId = Strickler_15.0

[definition]
	id = PRO_KBR-W-00483
	type = zw
	thalweg = 0.0
	numLevels = 2
	levels = 0 100
	flowWidths = 1.00 201.00
	totalWidths = 1.00 201.00
	frictionId = Strickler_15.0

[definition]
	id = PRO_KBR-W-00484
	type = zw
	thalweg = 0.0
	numLevels = 2
	levels = 0 100
	flowWidths = 1.00 201.00
	totalWidths = 1.00 201.00
	frictionId = Strickler_15.0

[definition]
	id = PRO_KBR-W-00485
	type = zw
	thalweg = 0.0
	numLevels = 2
	levels = 0 100
	flowWidths = 2.25 202.25
	totalWidths = 2.25 202.25
	frictionId = Strickler_15.0

[definition]
	id = PRO_NIEUW
	type = zw
	thalweg = 0.0
	numLevels = 2
	levels = 0 100
	flowWidths = 4.00 204.00
	totalWidths = 4.00 204.00
	frictionId = Strickler_15.0

[definition]
	id = PPRO_OAF-O-00002
	type = zw
	thalweg = 0.0
	numLevels = 2
	levels = 0 100
	flowWidths = 0.60 300.60
	totalWidths = 0.60 300.60
	frictionId = Manning_0.03

[definition]
	id = PPRO_OAF-O-00087
	type = zw
	thalweg = 0.0
	numLevels = 2
	levels = 0 100
	flowWidths = 0.70 300.70
	totalWidths = 0.70 300.70
	frictionId = Manning_0.03

[definition]
	id = PPRO_OAF-O-00954
	type = zw
	thalweg = 0.0
	numLevels = 2
	levels = 0 100
	flowWidths = 0.90 300.90
	totalWidths = 0.90 300.90
	frictionId = Manning_0.03

[definition]
	id = PPRO_OAF-O-00955
	type = zw
	thalweg = 0.0
	numLevels = 2
	levels = 0 100
	flowWidths = 0.50 300.50
	totalWidths = 0.50 300.50
	frictionId = Manning_0.03

[definition]
	id = PPRO_OAF-O-00956
	type = zw
	thalweg = 0.0
	numLevels = 2
	levels = 0 100
	flowWidths = 0.50 300.50
	totalWidths = 0.50 300.50
	frictionId = Manning_0.03

[definition]
	id = PPRO_OAF-O-00959
	type = zw
	thalweg = 0.0
	numLevels = 2
	levels = 0 100
	flowWidths = 0.50 20.50
	totalWidths = 0.50 20.50
	frictionId = Manning_0.03

[definition]
	id = PPRO_OAF-O-01042
	type = zw
	thalweg = 0.0
	numLevels = 2
	levels = 0 100
	flowWidths = 0.70 300.70
	totalWidths = 0.70 300.70
	frictionId = Manning_0.03

[definition]
	id = PPRO_OAF-O-01108
	type = zw
	thalweg = 0.0
	numLevels = 2
	levels = 0 100
	flowWidths = 0.50 300.50
	totalWidths = 0.50 300.50
	frictionId = Manning_0.03

[definition]
	id = PPRO_OAF-O-00219
	type = zw
	thalweg = 0.0
	numLevels = 2
	levels = 0 100
	flowWidths = 0.60 300.60
	totalWidths = 0.60 300.60
	frictionId = Manning_0.03

[definition]
	id = PPRO_OAF-O-02379
	type = zw
	thalweg = 0.0
	numLevels = 2
	levels = 0 100
	flowWidths = 0.90 300.90
	totalWidths = 0.90 300.90
	frictionId = Manning_0.03

[definition]
	id = PPRO_OAF-O-00058
	type = zw
	thalweg = 0.0
	numLevels = 2
	levels = 0 100
	flowWidths = 0.90 300.90
	totalWidths = 0.90 300.90
	frictionId = Manning_0.03

[definition]
	id = PPRO_OAF-O-00162
	type = zw
	thalweg = 0.0
	numLevels = 2
	levels = 0 100
	flowWidths = 0.50 20.50
	totalWidths = 0.50 20.50
	frictionId = Manning_0.03

[definition]
	id = PPRO_OAF-O-00159
	type = zw
	thalweg = 0.0
	numLevels = 2
	levels = 0 100
	flowWidths = 2.60 252.60
	totalWidths = 2.60 252.60
	frictionId = Manning_0.03

[definition]
	id = PPRO_OAF-O-00161
	type = zw
	thalweg = 0.0
	numLevels = 2
	levels = 0 100
	flowWidths = 3.10 253.10
	totalWidths = 3.10 253.10
	frictionId = Manning_0.03

[definition]
	id = PPRO_OAF-O-00155
	type = zw
	thalweg = 0.0
	numLevels = 2
	levels = 0 100
	flowWidths = 2.80 252.80
	totalWidths = 2.80 252.80
	frictionId = Manning_0.03

[definition]
	id = PPRO_OAF-O-01054
	type = zw
	thalweg = 0.0
	numLevels = 2
	levels = 0 100
	flowWidths = 0.50 20.50
	totalWidths = 0.50 20.50
	frictionId = Manning_0.03

[definition]
	id = PPRO_OAF-O-00079
	type = zw
	thalweg = 0.0
	numLevels = 2
	levels = 0 100
	flowWidths = 0.90 300.90
	totalWidths = 0.90 300.90
	frictionId = Manning_0.03

[definition]
	id = PPRO_OAF-O-02389
	type = zw
	thalweg = 0.0
	numLevels = 2
	levels = 0 100
	flowWidths = 0.50 20.50
	totalWidths = 0.50 20.50
	frictionId = Manning_0.03

[definition]
	id = PPRO_OAF-O-02390
	type = zw
	thalweg = 0.0
	numLevels = 2
	levels = 0 100
	flowWidths = 0.50 20.50
	totalWidths = 0.50 20.50
	frictionId = Manning_0.03

[definition]
	id = PPRO_OAF-O-02380
	type = zw
	thalweg = 0.0
	numLevels = 2
	levels = 0 100
	flowWidths = 0.50 20.50
	totalWidths = 0.50 20.50
	frictionId = Manning_0.03

[definition]
	id = PPRO_OAF-O-02381
	type = zw
	thalweg = 0.0
	numLevels = 2
	levels = 0 100
	flowWidths = 0.50 20.50
	totalWidths = 0.50 20.50
	frictionId = Manning_0.03

[definition]
	id = PPRO_OAF-O-02385
	type = zw
	thalweg = 0.0
	numLevels = 2
	levels = 0 100
	flowWidths = 0.50 20.50
	totalWidths = 0.50 20.50
	frictionId = Manning_0.03

[definition]
	id = PPRO_OAF-O-01041
	type = zw
	thalweg = 0.0
	numLevels = 2
	levels = 0 100
	flowWidths = 0.50 20.50
	totalWidths = 0.50 20.50
	frictionId = Manning_0.03

[definition]
	id = PPRO_OAF-O-00157
	type = zw
	thalweg = 0.0
	numLevels = 2
	levels = 0 100
	flowWidths = 0.50 300.50
	totalWidths = 0.50 300.50
	frictionId = Manning_0.03

[definition]
	id = PPRO_OAF-O-00156
	type = zw
	thalweg = 0.0
	numLevels = 2
	levels = 0 100
	flowWidths = 0.50 300.50
	totalWidths = 0.50 300.50
	frictionId = Manning_0.03

[definition]
	id = PPRO_OAF-O-02368
	type = zw
	thalweg = 0.0
	numLevels = 2
	levels = 0 100
	flowWidths = 0.50 20.50
	totalWidths = 0.50 20.50
	frictionId = Manning_0.03

[definition]
	id = PPRO_OAF-O-02369
	type = zw
	thalweg = 0.0
	numLevels = 2
	levels = 0 100
	flowWidths = 0.50 20.50
	totalWidths = 0.50 20.50
	frictionId = Manning_0.03

[definition]
	id = PPRO_OAF-O-02392
	type = zw
	thalweg = 0.0
	numLevels = 2
	levels = 0 100
	flowWidths = 0.50 20.50
	totalWidths = 0.50 20.50
	frictionId = Manning_0.03

[definition]
	id = PPRO_OAF-O-00059
	type = zw
	thalweg = 0.0
	numLevels = 2
	levels = 0 100
	flowWidths = 0.70 300.70
	totalWidths = 0.70 300.70
	frictionId = Manning_0.03

[definition]
	id = PPRO_OAF-O-02478
	type = zw
	thalweg = 0.0
	numLevels = 2
	levels = 0 100
	flowWidths = 0.50 20.50
	totalWidths = 0.50 20.50
	frictionId = Manning_0.03

[definition]
	id = PPRO_OAF-O-02479
	type = zw
	thalweg = 0.0
	numLevels = 2
	levels = 0 100
	flowWidths = 0.50 20.50
	totalWidths = 0.50 20.50
	frictionId = Manning_0.03

[definition]
	id = PPRO_OAF-O-02477
	type = zw
	thalweg = 0.0
	numLevels = 2
	levels = 0 100
	flowWidths = 0.50 20.50
	totalWidths = 0.50 20.50
	frictionId = Manning_0.03

[definition]
	id = PPRO_OAF-O-00128
	type = zw
	thalweg = 0.0
	numLevels = 2
	levels = 0 100
	flowWidths = 3.00 303.00
	totalWidths = 3.00 303.00
	frictionId = Manning_0.03

[definition]
	id = PPRO_OAF-O-01222
	type = zw
	thalweg = 0.0
	numLevels = 2
	levels = 0 100
	flowWidths = 0.50 20.50
	totalWidths = 0.50 20.50
	frictionId = Manning_0.03

[definition]
	id = PPRO_OAF-O-02370
	type = zw
	thalweg = 0.0
	numLevels = 2
	levels = 0 100
	flowWidths = 0.50 20.50
	totalWidths = 0.50 20.50
	frictionId = Manning_0.03

[definition]
	id = PPRO_OAF-O-01151
	type = zw
	thalweg = 0.0
	numLevels = 2
	levels = 0 100
	flowWidths = 0.50 20.50
	totalWidths = 0.50 20.50
	frictionId = Manning_0.03

[definition]
	id = PPRO_OAF-O-00838
	type = zw
	thalweg = 0.0
	numLevels = 2
	levels = 0 100
	flowWidths = 4.50 444.50
	totalWidths = 4.50 444.50
	frictionId = Manning_0.03

[definition]
	id = PPRO_OAF-O-02480
	type = zw
	thalweg = 0.0
	numLevels = 2
	levels = 0 100
	flowWidths = 0.50 20.50
	totalWidths = 0.50 20.50
	frictionId = Manning_0.03

[definition]
	id = PPRO_OAF-O-02393
	type = zw
	thalweg = 0.0
	numLevels = 2
	levels = 0 100
	flowWidths = 0.50 20.50
	totalWidths = 0.50 20.50
	frictionId = Manning_0.03

[definition]
	id = PPRO_OAF-O-02383
	type = zw
	thalweg = 0.0
	numLevels = 2
	levels = 0 100
	flowWidths = 0.50 20.50
	totalWidths = 0.50 20.50
	frictionId = Manning_0.03

[definition]
	id = PPRO_OAF-O-02395
	type = zw
	thalweg = 0.0
	numLevels = 2
	levels = 0 100
	flowWidths = 0.50 20.50
	totalWidths = 0.50 20.50
	frictionId = Manning_0.03

[definition]
	id = PPRO_OAF-O-02415
	type = zw
	thalweg = 0.0
	numLevels = 2
	levels = 0 100
	flowWidths = 0.50 20.50
	totalWidths = 0.50 20.50
	frictionId = Manning_0.03

[definition]
	id = PPRO_OAF-O-00084
	type = zw
	thalweg = 0.0
	numLevels = 2
	levels = 0 100
	flowWidths = 0.50 20.50
	totalWidths = 0.50 20.50
	frictionId = Manning_0.03

[definition]
	id = PPRO_OAF-O-00217
	type = zw
	thalweg = 0.0
	numLevels = 2
	levels = 0 100
	flowWidths = 0.50 20.50
	totalWidths = 0.50 20.50
	frictionId = Manning_0.03

[definition]
	id = PPRO_OAF-O-00215
	type = zw
	thalweg = 0.0
	numLevels = 2
	levels = 0 100
	flowWidths = 0.50 20.50
	totalWidths = 0.50 20.50
	frictionId = Manning_0.03

[definition]
	id = PPRO_OAF-O-00216
	type = zw
	thalweg = 0.0
	numLevels = 2
	levels = 0 100
	flowWidths = 0.50 20.50
	totalWidths = 0.50 20.50
	frictionId = Manning_0.03

[definition]
	id = PPRO_OAF-O-00213
	type = zw
	thalweg = 0.0
	numLevels = 2
	levels = 0 100
	flowWidths = 0.50 20.50
	totalWidths = 0.50 20.50
	frictionId = Manning_0.03

[definition]
	id = PPRO_OAF-O-00214
	type = zw
	thalweg = 0.0
	numLevels = 2
	levels = 0 100
	flowWidths = 0.50 20.50
	totalWidths = 0.50 20.50
	frictionId = Manning_0.03

[definition]
	id = PPRO_OAF-O-00218
	type = zw
	thalweg = 0.0
	numLevels = 2
	levels = 0 100
	flowWidths = 0.50 20.50
	totalWidths = 0.50 20.50
	frictionId = Manning_0.03

[definition]
	id = PPRO_OAF-O-02387
	type = zw
	thalweg = 0.0
	numLevels = 2
	levels = 0 100
	flowWidths = 0.50 20.50
	totalWidths = 0.50 20.50
	frictionId = Manning_0.03

[definition]
	id = PPRO_OAF-O-02386
	type = zw
	thalweg = 0.0
	numLevels = 2
	levels = 0 100
	flowWidths = 0.50 20.50
	totalWidths = 0.50 20.50
	frictionId = Manning_0.03

[definition]
	id = PPRO_OAF-E-00466
	type = zw
	thalweg = 0.0
	numLevels = 2
	levels = 0 100
	flowWidths = 17.00 517.00
	totalWidths = 17.00 517.00
	frictionId = Manning_0.03

