# Generated with D-HyDAMO in delftd3fmpy v.1.1.2 on 2021-07-05 22:35:17.
# Tested and compatible with D-Flow FM 1.2.105.67228M, DIMRset 2.13.02.67836 and D-HYDRO suite 1D2D (Beta) 0.9.6.51435.
# 
[General]
fileVersion = 1.01
fileType = crossLoc

[CrossSection]
	id = OAF-O-00782_351.8
	branchid = OAF-O-00782
	chainage = 351.795
	shift = 0.0
	definitionId = 20010612-5

[CrossSection]
	id = OAF-O-00899_13.8
	branchid = OAF-O-00899
	chainage = 13.766
	shift = 0.0
	definitionId = 20030207-1

[CrossSection]
	id = OAF-O-00902_27.6
	branchid = OAF-O-00902
	chainage = 27.608
	shift = 0.0
	definitionId = 20030207-2

[CrossSection]
	id = OAF-O-00074_19.3
	branchid = OAF-O-00074
	chainage = 19.323
	shift = 0.0
	definitionId = 20030207-3

[CrossSection]
	id = OAF-O-00075_478.5
	branchid = OAF-O-00075
	chainage = 478.5
	shift = 0.0
	definitionId = 20030211-2

[CrossSection]
	id = OAF-O-00076_24.5
	branchid = OAF-O-00076
	chainage = 24.488
	shift = 0.0
	definitionId = 20030211-3

[CrossSection]
	id = OAF-O-00077_60.2
	branchid = OAF-O-00077
	chainage = 60.198
	shift = 0.0
	definitionId = 20030211-4

[CrossSection]
	id = OAF-O-00893_583.2
	branchid = OAF-O-00893
	chainage = 583.244
	shift = 0.0
	definitionId = 20030211-5

[CrossSection]
	id = OAF-O-00895_253.9
	branchid = OAF-O-00895
	chainage = 253.946
	shift = 0.0
	definitionId = 20030211-6

[CrossSection]
	id = OAF-O-00894_166.5
	branchid = OAF-O-00894
	chainage = 166.484
	shift = 0.0
	definitionId = 20030211-7

[CrossSection]
	id = OAF-O-00896_43.8
	branchid = OAF-O-00896
	chainage = 43.847
	shift = 0.0
	definitionId = 20030211-8

[CrossSection]
	id = OAF-O-00048_52.4
	branchid = OAF-O-00048
	chainage = 52.352
	shift = 0.0
	definitionId = 20030212-3

[CrossSection]
	id = OAF-O-00054_269.8
	branchid = OAF-O-00054
	chainage = 269.815
	shift = 0.0
	definitionId = 20030212-4

[CrossSection]
	id = OAF-O-00062_182.3
	branchid = OAF-O-00062
	chainage = 182.297
	shift = 0.0
	definitionId = 20030212-5

[CrossSection]
	id = OAF-O-00061_310.3
	branchid = OAF-O-00061
	chainage = 310.259
	shift = 0.0
	definitionId = 20030212-6

[CrossSection]
	id = OAF-O-00065_206.6
	branchid = OAF-O-00065
	chainage = 206.562
	shift = 0.0
	definitionId = 20030217-1

[CrossSection]
	id = OAF-O-00063_589.2
	branchid = OAF-O-00063
	chainage = 589.202
	shift = 0.0
	definitionId = 20030217-2

[CrossSection]
	id = OAF-O-00064_372.1
	branchid = OAF-O-00064
	chainage = 372.09
	shift = 0.0
	definitionId = 20030217-4

[CrossSection]
	id = OAF-O-00070_129.0
	branchid = OAF-O-00070
	chainage = 128.998
	shift = 0.0
	definitionId = 20030217-5

[CrossSection]
	id = OAF-O-00071_44.6
	branchid = OAF-O-00071
	chainage = 44.57
	shift = 0.0
	definitionId = 20030217-6

[CrossSection]
	id = OAF-O-00069_117.1
	branchid = OAF-O-00069
	chainage = 117.14
	shift = 0.0
	definitionId = 20030217-7

[CrossSection]
	id = OAF-O-00068_97.3
	branchid = OAF-O-00068
	chainage = 97.283
	shift = 0.0
	definitionId = 20030217-8

[CrossSection]
	id = OAF-O-00066_680.3
	branchid = OAF-O-00066
	chainage = 680.261
	shift = 0.0
	definitionId = 20030217-9

[CrossSection]
	id = OAF-O-01090_196.5
	branchid = OAF-O-01090
	chainage = 196.548
	shift = 0.0
	definitionId = 20030221-1

[CrossSection]
	id = OAF-O-00089_24.7
	branchid = OAF-O-00089
	chainage = 24.731
	shift = 0.0
	definitionId = 20030226-1

[CrossSection]
	id = OAF-O-01043_40.6
	branchid = OAF-O-01043
	chainage = 40.599
	shift = 0.0
	definitionId = 20030226-2

[CrossSection]
	id = OAF-O-00897_311.0
	branchid = OAF-O-00897
	chainage = 311.01
	shift = 0.0
	definitionId = 20030226-3

[CrossSection]
	id = OAF-O-00088_59.0
	branchid = OAF-O-00088
	chainage = 58.997
	shift = 0.0
	definitionId = 20030310-1

[CrossSection]
	id = OAF-O-00078_268.8
	branchid = OAF-O-00078
	chainage = 268.829
	shift = 0.0
	definitionId = 20030310-10

[CrossSection]
	id = OAF-O-00083_672.5
	branchid = OAF-O-00083
	chainage = 672.474
	shift = 0.0
	definitionId = 20030310-11

[CrossSection]
	id = OAF-O-02396_134.4
	branchid = OAF-O-02396
	chainage = 134.357
	shift = 0.0
	definitionId = 20030310-2

[CrossSection]
	id = OAF-O-00898_153.2
	branchid = OAF-O-00898
	chainage = 153.201
	shift = 0.0
	definitionId = 20030310-3

[CrossSection]
	id = OAF-O-00090_162.4
	branchid = OAF-O-00090
	chainage = 162.395
	shift = 0.0
	definitionId = 20030310-4

[CrossSection]
	id = OAF-O-00091_38.5
	branchid = OAF-O-00091
	chainage = 38.497
	shift = 0.0
	definitionId = 20030310-5

[CrossSection]
	id = OAF-O-00092_285.1
	branchid = OAF-O-00092
	chainage = 285.11
	shift = 0.0
	definitionId = 20030310-6

[CrossSection]
	id = OAF-O-00093_143.6
	branchid = OAF-O-00093
	chainage = 143.621
	shift = 0.0
	definitionId = 20030310-7

[CrossSection]
	id = OAF-O-00086_26.8
	branchid = OAF-O-00086
	chainage = 26.752
	shift = 0.0
	definitionId = 20030310-8

[CrossSection]
	id = OAF-O-00085_229.2
	branchid = OAF-O-00085
	chainage = 229.245
	shift = 0.0
	definitionId = 20030310-9

[CrossSection]
	id = OAF-O-00081_651.1
	branchid = OAF-O-00081
	chainage = 651.131
	shift = 0.0
	definitionId = 20030312-1

[CrossSection]
	id = OAF-O-00081_227.6
	branchid = OAF-O-00081
	chainage = 227.578
	shift = 0.0
	definitionId = 20030312-2

[CrossSection]
	id = OAF-O-00080_16.7
	branchid = OAF-O-00080
	chainage = 16.654
	shift = 0.0
	definitionId = 20030312-3

[CrossSection]
	id = OAF-O-00101_386.6
	branchid = OAF-O-00101
	chainage = 386.577
	shift = 0.0
	definitionId = 20030312-4

[CrossSection]
	id = OAF-O-00102_209.6
	branchid = OAF-O-00102
	chainage = 209.553
	shift = 0.0
	definitionId = 20030312-5

[CrossSection]
	id = OAF-O-00103_190.2
	branchid = OAF-O-00103
	chainage = 190.191
	shift = 0.0
	definitionId = 20030312-6

[CrossSection]
	id = OAF-O-00098_119.6
	branchid = OAF-O-00098
	chainage = 119.592
	shift = 0.0
	definitionId = 20030312-7

[CrossSection]
	id = OAF-O-00094_1001.7
	branchid = OAF-O-00094
	chainage = 1001.679
	shift = 0.0
	definitionId = 20030312-8

[CrossSection]
	id = OAF-O-00095_98.6
	branchid = OAF-O-00095
	chainage = 98.566
	shift = 0.0
	definitionId = 20030312-9

[CrossSection]
	id = OAF-O-00096_335.4
	branchid = OAF-O-00096
	chainage = 335.365
	shift = 0.0
	definitionId = 20030313-1

[CrossSection]
	id = OAF-O-00107_562.9
	branchid = OAF-O-00107
	chainage = 562.904
	shift = 0.0
	definitionId = 20030313-2

[CrossSection]
	id = OAF-O-00107_251.7
	branchid = OAF-O-00107
	chainage = 251.697
	shift = 0.0
	definitionId = 20030313-3

[CrossSection]
	id = OAF-O-00106_215.2
	branchid = OAF-O-00106
	chainage = 215.189
	shift = 0.0
	definitionId = 20030313-4

[CrossSection]
	id = OAF-O-00104_185.2
	branchid = OAF-O-00104
	chainage = 185.249
	shift = 0.0
	definitionId = 20030313-5

[CrossSection]
	id = OAF-O-00114_307.7
	branchid = OAF-O-00114
	chainage = 307.687
	shift = 0.0
	definitionId = 20030403-1

[CrossSection]
	id = OAF-O-00122_9.5
	branchid = OAF-O-00122
	chainage = 9.529
	shift = 0.0
	definitionId = 20030403-10

[CrossSection]
	id = OAF-O-01030_59.2
	branchid = OAF-O-01030
	chainage = 59.194
	shift = 0.0
	definitionId = 20030403-2

[CrossSection]
	id = OAF-O-00115_189.8
	branchid = OAF-O-00115
	chainage = 189.78
	shift = 0.0
	definitionId = 20030403-3

[CrossSection]
	id = OAF-O-00117_129.1
	branchid = OAF-O-00117
	chainage = 129.13
	shift = 0.0
	definitionId = 20030403-4

[CrossSection]
	id = OAF-O-00118_50.4
	branchid = OAF-O-00118
	chainage = 50.38
	shift = 0.0
	definitionId = 20030403-5

[CrossSection]
	id = OAF-O-00120_162.5
	branchid = OAF-O-00120
	chainage = 162.451
	shift = 0.0
	definitionId = 20030403-7

[CrossSection]
	id = OAF-O-00119_625.4
	branchid = OAF-O-00119
	chainage = 625.434
	shift = 0.0
	definitionId = 20030403-8

[CrossSection]
	id = OAF-O-00121_670.6
	branchid = OAF-O-00121
	chainage = 670.555
	shift = 0.0
	definitionId = 20030403-9

[CrossSection]
	id = OAF-O-00127_292.5
	branchid = OAF-O-00127
	chainage = 292.5
	shift = 0.0
	definitionId = 20030404-1

[CrossSection]
	id = OAF-O-00950_362.0
	branchid = OAF-O-00950
	chainage = 361.978
	shift = 0.0
	definitionId = 20030404-10

[CrossSection]
	id = OAF-O-00139_51.3
	branchid = OAF-O-00139
	chainage = 51.3
	shift = 0.0
	definitionId = 20030404-11

[CrossSection]
	id = OAF-O-00140_74.9
	branchid = OAF-O-00140
	chainage = 74.898
	shift = 0.0
	definitionId = 20030404-12

[CrossSection]
	id = OAF-O-00141_462.3
	branchid = OAF-O-00141
	chainage = 462.349
	shift = 0.0
	definitionId = 20030404-13

[CrossSection]
	id = OAF-O-00126_318.1
	branchid = OAF-O-00126
	chainage = 318.132
	shift = 0.0
	definitionId = 20030404-2

[CrossSection]
	id = OAF-O-00124_305.4
	branchid = OAF-O-00124
	chainage = 305.405
	shift = 0.0
	definitionId = 20030404-3

[CrossSection]
	id = OAF-O-00123_409.0
	branchid = OAF-O-00123
	chainage = 409.009
	shift = 0.0
	definitionId = 20030404-4

[CrossSection]
	id = OAF-O-00134_185.9
	branchid = OAF-O-00134
	chainage = 185.879
	shift = 0.0
	definitionId = 20030404-5

[CrossSection]
	id = OAF-O-00901_78.6
	branchid = OAF-O-00901
	chainage = 78.559
	shift = 0.0
	definitionId = 20030404-6

[CrossSection]
	id = OAF-O-00132_331.4
	branchid = OAF-O-00132
	chainage = 331.395
	shift = 0.0
	definitionId = 20030404-7

[CrossSection]
	id = OAF-O-00131_23.6
	branchid = OAF-O-00131
	chainage = 23.578
	shift = 0.0
	definitionId = 20030404-8

[CrossSection]
	id = OAF-O-00130_566.4
	branchid = OAF-O-00130
	chainage = 566.435
	shift = 0.0
	definitionId = 20030404-9

[CrossSection]
	id = OAF-O-00146_31.9
	branchid = OAF-O-00146
	chainage = 31.904
	shift = 0.0
	definitionId = 20030407-1

[CrossSection]
	id = OAF-O-00957_151.0
	branchid = OAF-O-00957
	chainage = 150.955
	shift = 0.0
	definitionId = 20030407-2

[CrossSection]
	id = OAF-O-00147_268.3
	branchid = OAF-O-00147
	chainage = 268.341
	shift = 0.0
	definitionId = 20030407-3

[CrossSection]
	id = OAF-O-00960_73.5
	branchid = OAF-O-00960
	chainage = 73.474
	shift = 0.0
	definitionId = 20030407-4

[CrossSection]
	id = OAF-O-00149_380.6
	branchid = OAF-O-00149
	chainage = 380.647
	shift = 0.0
	definitionId = 20030407-5

[CrossSection]
	id = OAF-O-00166_0.5
	branchid = OAF-O-00166
	chainage = 0.49
	shift = 0.0
	definitionId = 20030407-7

[CrossSection]
	id = OAF-O-00164_13.4
	branchid = OAF-O-00164
	chainage = 13.443
	shift = 0.0
	definitionId = 20030407-8

[CrossSection]
	id = OAF-O-00152_436.2
	branchid = OAF-O-00152
	chainage = 436.25
	shift = 0.0
	definitionId = 20030408-1

[CrossSection]
	id = OAF-O-00137_62.0
	branchid = OAF-O-00137
	chainage = 62.023
	shift = 0.0
	definitionId = 20030408-10

[CrossSection]
	id = OAF-O-00138_273.3
	branchid = OAF-O-00138
	chainage = 273.27
	shift = 0.0
	definitionId = 20030408-11

[CrossSection]
	id = OAF-O-00143_519.2
	branchid = OAF-O-00143
	chainage = 519.159
	shift = 0.0
	definitionId = 20030408-12

[CrossSection]
	id = OAF-O-00144_427.0
	branchid = OAF-O-00144
	chainage = 426.963
	shift = 0.0
	definitionId = 20030408-13

[CrossSection]
	id = OAF-O-00153_66.2
	branchid = OAF-O-00153
	chainage = 66.244
	shift = 0.0
	definitionId = 20030408-2

[CrossSection]
	id = OAF-O-00997_84.5
	branchid = OAF-O-00997
	chainage = 84.533
	shift = 0.0
	definitionId = 20030408-4

[CrossSection]
	id = OAF-O-00997_273.8
	branchid = OAF-O-00997
	chainage = 273.838
	shift = 0.0
	definitionId = 20030408-5

[CrossSection]
	id = OAF-O-00158_307.7
	branchid = OAF-O-00158
	chainage = 307.716
	shift = 0.0
	definitionId = 20030408-7

[CrossSection]
	id = OAF-O-00166_853.7
	branchid = OAF-O-00166
	chainage = 853.714
	shift = 0.0
	definitionId = 20030408-9

[CrossSection]
	id = OAF-O-00779_71.8
	branchid = OAF-O-00779
	chainage = 71.819
	shift = 0.0
	definitionId = 20060316-0722

[CrossSection]
	id = OAF-O-00779_180.0
	branchid = OAF-O-00779
	chainage = 179.986
	shift = 0.0
	definitionId = 20060316-0723

[CrossSection]
	id = OAF-O-00779_284.5
	branchid = OAF-O-00779
	chainage = 284.493
	shift = 0.0
	definitionId = 20060316-0724

[CrossSection]
	id = OAF-O-00779_385.4
	branchid = OAF-O-00779
	chainage = 385.43
	shift = 0.0
	definitionId = 20060316-0725

[CrossSection]
	id = OAF-O-00779_485.0
	branchid = OAF-O-00779
	chainage = 484.961
	shift = 0.0
	definitionId = 20060316-0726

[CrossSection]
	id = OAF-O-00779_585.3
	branchid = OAF-O-00779
	chainage = 585.29
	shift = 0.0
	definitionId = 20060316-0727

[CrossSection]
	id = OAF-O-00780_38.3
	branchid = OAF-O-00780
	chainage = 38.33
	shift = 0.0
	definitionId = 20060316-0728

[CrossSection]
	id = OAF-O-00780_138.9
	branchid = OAF-O-00780
	chainage = 138.93
	shift = 0.0
	definitionId = 20060316-0729

[CrossSection]
	id = OAF-O-00780_240.9
	branchid = OAF-O-00780
	chainage = 240.928
	shift = 0.0
	definitionId = 20060316-0730

[CrossSection]
	id = OAF-O-00781_3.2
	branchid = OAF-O-00781
	chainage = 3.166
	shift = 0.0
	definitionId = 20060316-0732

[CrossSection]
	id = OAF-O-00781_102.5
	branchid = OAF-O-00781
	chainage = 102.471
	shift = 0.0
	definitionId = 20060316-0733

[CrossSection]
	id = OAF-O-00781_199.7
	branchid = OAF-O-00781
	chainage = 199.712
	shift = 0.0
	definitionId = 20060316-0734

[CrossSection]
	id = OAF-O-00781_292.1
	branchid = OAF-O-00781
	chainage = 292.065
	shift = 0.0
	definitionId = 20060316-0735

[CrossSection]
	id = OAF-O-00781_391.5
	branchid = OAF-O-00781
	chainage = 391.513
	shift = 0.0
	definitionId = 20060316-0736

[CrossSection]
	id = OAF-O-00781_483.7
	branchid = OAF-O-00781
	chainage = 483.725
	shift = 0.0
	definitionId = 20060316-0737

[CrossSection]
	id = OAF-O-00781_582.4
	branchid = OAF-O-00781
	chainage = 582.431
	shift = 0.0
	definitionId = 20060316-0738

[CrossSection]
	id = OAF-O-00781_683.7
	branchid = OAF-O-00781
	chainage = 683.655
	shift = 0.0
	definitionId = 20060316-0739

[CrossSection]
	id = OAF-O-00996_483.5
	branchid = OAF-O-00996
	chainage = 483.534
	shift = 0.0
	definitionId = 20060316-0804

[CrossSection]
	id = OAF-O-00996_57.1
	branchid = OAF-O-00996
	chainage = 57.092
	shift = 0.0
	definitionId = 20060316-0808

[CrossSection]
	id = OAF-O-00792_82.8
	branchid = OAF-O-00792
	chainage = 82.755
	shift = 0.0
	definitionId = 20080820-5

[CrossSection]
	id = OAF-O-00834_183.8
	branchid = OAF-O-00834
	chainage = 183.776
	shift = 0.0
	definitionId = 20080820-6

[CrossSection]
	id = OAF-O-00056_550.1
	branchid = OAF-O-00056
	chainage = 550.14
	shift = 0.0
	definitionId = CARLSON_BW_71494

[CrossSection]
	id = OAF-O-00056_429.2
	branchid = OAF-O-00056
	chainage = 429.217
	shift = 0.0
	definitionId = CARLSON_BW_71495

[CrossSection]
	id = OAF-O-00056_315.3
	branchid = OAF-O-00056
	chainage = 315.328
	shift = 0.0
	definitionId = CARLSON_BW_71496

[CrossSection]
	id = OAF-O-00056_203.7
	branchid = OAF-O-00056
	chainage = 203.674
	shift = 0.0
	definitionId = CARLSON_BW_71497

[CrossSection]
	id = OAF-O-00056_29.7
	branchid = OAF-O-00056
	chainage = 29.707
	shift = 0.0
	definitionId = CARLSON_BW_71498

[CrossSection]
	id = OAF-O-00160_300.7
	branchid = OAF-O-00160
	chainage = 300.661
	shift = 0.0
	definitionId = DP20140225-03

[CrossSection]
	id = OAF-O-00781_475.2
	branchid = OAF-O-00781
	chainage = 475.21
	shift = 0.0
	definitionId = DP20140225-08

[CrossSection]
	id = OAF-O-00780_419.5
	branchid = OAF-O-00780
	chainage = 419.473
	shift = 0.0
	definitionId = DP20140225-09

[CrossSection]
	id = OAF-O-00779_571.1
	branchid = OAF-O-00779
	chainage = 571.074
	shift = 0.0
	definitionId = DP20140227-04

[CrossSection]
	id = OAF-O-00113_9.8
	branchid = OAF-O-00113
	chainage = 9.785
	shift = 0.0
	definitionId = TB0028-160608133002

[CrossSection]
	id = OAF-O-00791_138.1
	branchid = OAF-O-00791
	chainage = 138.098
	shift = 0.0
	definitionId = TB0028-160608134334

[CrossSection]
	id = OAF-O-00151_142.8
	branchid = OAF-O-00151
	chainage = 142.83
	shift = 0.0
	definitionId = TB0028-160613143818

[CrossSection]
	id = OAF-O-00163_492.3
	branchid = OAF-O-00163
	chainage = 492.344
	shift = 0.0
	definitionId = TB0028-160614092134

[CrossSection]
	id = OAF-O-00142_320.4
	branchid = OAF-O-00142
	chainage = 320.428
	shift = 0.0
	definitionId = TB0028-160614094537

[CrossSection]
	id = OAF-O-00145_52.8
	branchid = OAF-O-00145
	chainage = 52.809
	shift = 0.0
	definitionId = TB0028-160614100305

[CrossSection]
	id = OAF-O-00168_67.3
	branchid = OAF-O-00168
	chainage = 67.343
	shift = 0.0
	definitionId = TB0028-160614101821

[CrossSection]
	id = OAF-O-00136_78.1
	branchid = OAF-O-00136
	chainage = 78.074
	shift = 0.0
	definitionId = TB0028-160614110029

[CrossSection]
	id = OAF-O-00135_147.2
	branchid = OAF-O-00135
	chainage = 147.237
	shift = 0.0
	definitionId = TB0028-160614111052

[CrossSection]
	id = OAF-O-00133_241.8
	branchid = OAF-O-00133
	chainage = 241.821
	shift = 0.0
	definitionId = TB0028-160614113003

[CrossSection]
	id = OAF-O-00900_989.3
	branchid = OAF-O-00900
	chainage = 989.274
	shift = 0.0
	definitionId = TB0028-160614114327

[CrossSection]
	id = OAF-O-00112_223.2
	branchid = OAF-O-00112
	chainage = 223.174
	shift = 0.0
	definitionId = TB0028-160614124202

[CrossSection]
	id = OAF-O-00111_1032.8
	branchid = OAF-O-00111
	chainage = 1032.788
	shift = 0.0
	definitionId = TB0028-160614131524

[CrossSection]
	id = OAF-O-00110_280.1
	branchid = OAF-O-00110
	chainage = 280.13
	shift = 0.0
	definitionId = TB0028-160615091700

[CrossSection]
	id = OAF-O-00109_641.5
	branchid = OAF-O-00109
	chainage = 641.471
	shift = 0.0
	definitionId = TB0028-160615094742

[CrossSection]
	id = OAF-O-00099_478.1
	branchid = OAF-O-00099
	chainage = 478.149
	shift = 0.0
	definitionId = TB0028-160615111909

[CrossSection]
	id = OAF-O-00797_78.3
	branchid = OAF-O-00797
	chainage = 78.305
	shift = 0.0
	definitionId = TB0028-160616132314

[CrossSection]
	id = OAF-O-02391_314.5
	branchid = OAF-O-02391
	chainage = 314.539
	shift = 0.0
	definitionId = TB0028-160616133827

[CrossSection]
	id = OAF-O-00815_78.7
	branchid = OAF-O-00815
	chainage = 78.662
	shift = 0.0
	definitionId = TB0028-160616140922

[CrossSection]
	id = OAF-O-00055_91.8
	branchid = OAF-O-00055
	chainage = 91.789
	shift = 0.0
	definitionId = TB0028-160622101429

[CrossSection]
	id = OAF-O-02485_141.0
	branchid = OAF-O-02485
	chainage = 141.017
	shift = 0.0
	definitionId = TB0028-160622111531

[CrossSection]
	id = OAF-O-00053_45.6
	branchid = OAF-O-00053
	chainage = 45.599
	shift = 0.0
	definitionId = TB0028-160627102359

[CrossSection]
	id = OAF-O-00125_60.0
	branchid = OAF-O-00125
	chainage = 60.002
	shift = 0.0
	definitionId = TB0028-160628122405

[CrossSection]
	id = OAF-O-00995_33.5
	branchid = OAF-O-00995
	chainage = 33.498
	shift = 0.0
	definitionId = TB0028-160704110636

[CrossSection]
	id = OAF-O-00962_506.5
	branchid = OAF-O-00962
	chainage = 506.451
	shift = 0.0
	definitionId = TB0028-180904110737

[CrossSection]
	id = OAF-O-00962_36.0
	branchid = OAF-O-00962
	chainage = 36.044
	shift = 0.0
	definitionId = TB0028-180904113148

[CrossSection]
	id = OAF-O-00002_0.1
	branchid = OAF-O-00002
	chainage = 0.1
	shift = -0.52
	definitionId = PPROUP_OAF-O-00002_up

[CrossSection]
	id = OAF-O-00002_71.7
	branchid = OAF-O-00002
	chainage = 71.72240223650988
	shift = -0.52
	definitionId = PPRODN_OAF-O-00002_down

[CrossSection]
	id = OAF-O-00087_0.1
	branchid = OAF-O-00087
	chainage = 0.1
	shift = -2.69
	definitionId = PPROUP_OAF-O-00087_up

[CrossSection]
	id = OAF-O-00087_69.6
	branchid = OAF-O-00087
	chainage = 69.64768262273995
	shift = -2.79
	definitionId = PPRODN_OAF-O-00087_down

[CrossSection]
	id = OAF-O-00954_0.1
	branchid = OAF-O-00954
	chainage = 0.1
	shift = -3.48
	definitionId = PPROUP_OAF-O-00954_up

[CrossSection]
	id = OAF-O-00954_37.2
	branchid = OAF-O-00954
	chainage = 37.2451872464378
	shift = -3.47
	definitionId = PPRODN_OAF-O-00954_down

[CrossSection]
	id = OAF-O-00955_0.1
	branchid = OAF-O-00955
	chainage = 0.1
	shift = -3.55
	definitionId = PPROUP_OAF-O-00955_up

[CrossSection]
	id = OAF-O-00955_4.7
	branchid = OAF-O-00955
	chainage = 4.65245154254508
	shift = -3.55
	definitionId = PPRODN_OAF-O-00955_down

[CrossSection]
	id = OAF-O-00956_0.1
	branchid = OAF-O-00956
	chainage = 0.1
	shift = -3.55
	definitionId = PPROUP_OAF-O-00956_up

[CrossSection]
	id = OAF-O-00956_19.0
	branchid = OAF-O-00956
	chainage = 18.96191598951577
	shift = -3.55
	definitionId = PPRODN_OAF-O-00956_down

[CrossSection]
	id = OAF-O-00959_0.1
	branchid = OAF-O-00959
	chainage = 0.1
	shift = -3.45
	definitionId = PPROUP_OAF-O-00959_up

[CrossSection]
	id = OAF-O-00959_19.5
	branchid = OAF-O-00959
	chainage = 19.485720335347366
	shift = -3.45
	definitionId = PPRODN_OAF-O-00959_down

[CrossSection]
	id = OAF-O-01042_0.1
	branchid = OAF-O-01042
	chainage = 0.1
	shift = -1.79
	definitionId = PPROUP_OAF-O-01042_up

[CrossSection]
	id = OAF-O-01042_142.1
	branchid = OAF-O-01042
	chainage = 142.12916575236667
	shift = -2.21
	definitionId = PPRODN_OAF-O-01042_down

[CrossSection]
	id = OAF-O-01108_0.1
	branchid = OAF-O-01108
	chainage = 0.1
	shift = -3.49
	definitionId = PPROUP_OAF-O-01108_up

[CrossSection]
	id = OAF-O-01108_66.4
	branchid = OAF-O-01108
	chainage = 66.39835637559004
	shift = -3.67
	definitionId = PPRODN_OAF-O-01108_down

[CrossSection]
	id = OAF-O-00219_0.1
	branchid = OAF-O-00219
	chainage = 0.1
	shift = -1.87
	definitionId = PPROUP_OAF-O-00219_up

[CrossSection]
	id = OAF-O-00219_33.4
	branchid = OAF-O-00219
	chainage = 33.41594666902139
	shift = -1.87
	definitionId = PPRODN_OAF-O-00219_down

[CrossSection]
	id = OAF-O-02379_0.1
	branchid = OAF-O-02379
	chainage = 0.1
	shift = -1.54
	definitionId = PPROUP_OAF-O-02379_up

[CrossSection]
	id = OAF-O-02379_10.2
	branchid = OAF-O-02379
	chainage = 10.18512527783512
	shift = -1.54
	definitionId = PPRODN_OAF-O-02379_down

[CrossSection]
	id = OAF-O-00058_0.1
	branchid = OAF-O-00058
	chainage = 0.1
	shift = -1.54
	definitionId = PPROUP_OAF-O-00058_up

[CrossSection]
	id = OAF-O-00058_63.0
	branchid = OAF-O-00058
	chainage = 63.027757215998115
	shift = -1.54
	definitionId = PPRODN_OAF-O-00058_down

[CrossSection]
	id = OAF-O-00162_0.1
	branchid = OAF-O-00162
	chainage = 0.1
	shift = -4.3
	definitionId = PPROUP_OAF-O-00162_up

[CrossSection]
	id = OAF-O-00162_42.0
	branchid = OAF-O-00162
	chainage = 42.027332504724015
	shift = -4.3
	definitionId = PPRODN_OAF-O-00162_down

[CrossSection]
	id = OAF-O-00159_0.1
	branchid = OAF-O-00159
	chainage = 0.1
	shift = -4.14
	definitionId = PPROUP_OAF-O-00159_up

[CrossSection]
	id = OAF-O-00159_914.5
	branchid = OAF-O-00159
	chainage = 914.5376766161453
	shift = -4.14
	definitionId = PPRODN_OAF-O-00159_down

[CrossSection]
	id = OAF-O-00161_0.1
	branchid = OAF-O-00161
	chainage = 0.1
	shift = -4.4
	definitionId = PPROUP_OAF-O-00161_up

[CrossSection]
	id = OAF-O-00161_840.7
	branchid = OAF-O-00161
	chainage = 840.6547233846574
	shift = -4.49
	definitionId = PPRODN_OAF-O-00161_down

[CrossSection]
	id = OAF-O-00155_0.1
	branchid = OAF-O-00155
	chainage = 0.1
	shift = -4.16
	definitionId = PPROUP_OAF-O-00155_up

[CrossSection]
	id = OAF-O-00155_446.3
	branchid = OAF-O-00155
	chainage = 446.3277973767009
	shift = -4.14
	definitionId = PPRODN_OAF-O-00155_down

[CrossSection]
	id = OAF-O-01054_0.1
	branchid = OAF-O-01054
	chainage = 0.1
	shift = -3.7
	definitionId = PPROUP_OAF-O-01054_up

[CrossSection]
	id = OAF-O-01054_17.5
	branchid = OAF-O-01054
	chainage = 17.537668216446683
	shift = -3.7
	definitionId = PPRODN_OAF-O-01054_down

[CrossSection]
	id = OAF-O-00079_0.1
	branchid = OAF-O-00079
	chainage = 0.1
	shift = -2.29
	definitionId = PPROUP_OAF-O-00079_up

[CrossSection]
	id = OAF-O-00079_13.9
	branchid = OAF-O-00079
	chainage = 13.904516558826527
	shift = -2.08
	definitionId = PPRODN_OAF-O-00079_down

[CrossSection]
	id = OAF-O-02389_0.1
	branchid = OAF-O-02389
	chainage = 0.1
	shift = -2.25
	definitionId = PPROUP_OAF-O-02389_up

[CrossSection]
	id = OAF-O-02389_14.2
	branchid = OAF-O-02389
	chainage = 14.245022313411365
	shift = -2.25
	definitionId = PPRODN_OAF-O-02389_down

[CrossSection]
	id = OAF-O-02390_0.1
	branchid = OAF-O-02390
	chainage = 0.1
	shift = -2.25
	definitionId = PPROUP_OAF-O-02390_up

[CrossSection]
	id = OAF-O-02390_16.6
	branchid = OAF-O-02390
	chainage = 16.608378210632686
	shift = -2.25
	definitionId = PPRODN_OAF-O-02390_down

[CrossSection]
	id = OAF-O-02380_0.1
	branchid = OAF-O-02380
	chainage = 0.1
	shift = -1.95
	definitionId = PPROUP_OAF-O-02380_up

[CrossSection]
	id = OAF-O-02380_6.8
	branchid = OAF-O-02380
	chainage = 6.768376161968824
	shift = -1.95
	definitionId = PPRODN_OAF-O-02380_down

[CrossSection]
	id = OAF-O-02381_0.1
	branchid = OAF-O-02381
	chainage = 0.1
	shift = -1.54
	definitionId = PPROUP_OAF-O-02381_up

[CrossSection]
	id = OAF-O-02381_2.4
	branchid = OAF-O-02381
	chainage = 2.364981349660792
	shift = -1.54
	definitionId = PPRODN_OAF-O-02381_down

[CrossSection]
	id = OAF-O-02385_0.1
	branchid = OAF-O-02385
	chainage = 0.1
	shift = -1.95
	definitionId = PPROUP_OAF-O-02385_up

[CrossSection]
	id = OAF-O-02385_5.2
	branchid = OAF-O-02385
	chainage = 5.2108816975012555
	shift = -1.95
	definitionId = PPRODN_OAF-O-02385_down

[CrossSection]
	id = OAF-O-01041_0.1
	branchid = OAF-O-01041
	chainage = 0.1
	shift = -2.25
	definitionId = PPROUP_OAF-O-01041_up

[CrossSection]
	id = OAF-O-01041_3.9
	branchid = OAF-O-01041
	chainage = 3.879506410089582
	shift = -2.25
	definitionId = PPRODN_OAF-O-01041_down

[CrossSection]
	id = OAF-O-00157_0.1
	branchid = OAF-O-00157
	chainage = 0.1
	shift = -3.68
	definitionId = PPROUP_OAF-O-00157_up

[CrossSection]
	id = OAF-O-00157_86.9
	branchid = OAF-O-00157
	chainage = 86.91969770973472
	shift = -3.84
	definitionId = PPRODN_OAF-O-00157_down

[CrossSection]
	id = OAF-O-00156_0.1
	branchid = OAF-O-00156
	chainage = 0.1
	shift = -3.59
	definitionId = PPROUP_OAF-O-00156_up

[CrossSection]
	id = OAF-O-00156_78.7
	branchid = OAF-O-00156
	chainage = 78.70015660036674
	shift = -3.83
	definitionId = PPRODN_OAF-O-00156_down

[CrossSection]
	id = OAF-O-02368_0.1
	branchid = OAF-O-02368
	chainage = 0.1
	shift = -4.03
	definitionId = PPROUP_OAF-O-02368_up

[CrossSection]
	id = OAF-O-02368_5.8
	branchid = OAF-O-02368
	chainage = 5.792297194120877
	shift = -4.03
	definitionId = PPRODN_OAF-O-02368_down

[CrossSection]
	id = OAF-O-02369_0.1
	branchid = OAF-O-02369
	chainage = 0.1
	shift = -4.199999999999999
	definitionId = PPROUP_OAF-O-02369_up

[CrossSection]
	id = OAF-O-02369_28.5
	branchid = OAF-O-02369
	chainage = 28.537646792884658
	shift = -4.16
	definitionId = PPRODN_OAF-O-02369_down

[CrossSection]
	id = OAF-O-02392_0.1
	branchid = OAF-O-02392
	chainage = 0.1
	shift = -2.25
	definitionId = PPROUP_OAF-O-02392_up

[CrossSection]
	id = OAF-O-02392_64.9
	branchid = OAF-O-02392
	chainage = 64.90000788974284
	shift = -2.25
	definitionId = PPRODN_OAF-O-02392_down

[CrossSection]
	id = OAF-O-00059_0.1
	branchid = OAF-O-00059
	chainage = 0.1
	shift = -1.32
	definitionId = PPROUP_OAF-O-00059_up

[CrossSection]
	id = OAF-O-00059_1083.8
	branchid = OAF-O-00059
	chainage = 1083.8012346060038
	shift = -1.53
	definitionId = PPRODN_OAF-O-00059_down

[CrossSection]
	id = OAF-O-02478_0.1
	branchid = OAF-O-02478
	chainage = 0.1
	shift = -5.800000000000001
	definitionId = PPROUP_OAF-O-02478_up

[CrossSection]
	id = OAF-O-02478_5.5
	branchid = OAF-O-02478
	chainage = 5.483189897385954
	shift = -5.800000000000001
	definitionId = PPRODN_OAF-O-02478_down

[CrossSection]
	id = OAF-O-02479_0.1
	branchid = OAF-O-02479
	chainage = 0.1
	shift = -5.800000000000001
	definitionId = PPROUP_OAF-O-02479_up

[CrossSection]
	id = OAF-O-02479_11.9
	branchid = OAF-O-02479
	chainage = 11.899885760144961
	shift = -5.800000000000001
	definitionId = PPRODN_OAF-O-02479_down

[CrossSection]
	id = OAF-O-02477_0.1
	branchid = OAF-O-02477
	chainage = 0.1
	shift = -5.800000000000001
	definitionId = PPROUP_OAF-O-02477_up

[CrossSection]
	id = OAF-O-02477_5.5
	branchid = OAF-O-02477
	chainage = 5.483285104663218
	shift = -5.800000000000001
	definitionId = PPRODN_OAF-O-02477_down

[CrossSection]
	id = OAF-O-00128_0.1
	branchid = OAF-O-00128
	chainage = 0.1
	shift = -4.21
	definitionId = PPROUP_OAF-O-00128_up

[CrossSection]
	id = OAF-O-00128_41.4
	branchid = OAF-O-00128
	chainage = 41.35922732088339
	shift = -4.94
	definitionId = PPRODN_OAF-O-00128_down

[CrossSection]
	id = OAF-O-01222_0.1
	branchid = OAF-O-01222
	chainage = 0.1
	shift = -3.7
	definitionId = PPROUP_OAF-O-01222_up

[CrossSection]
	id = OAF-O-01222_33.9
	branchid = OAF-O-01222
	chainage = 33.86604971281903
	shift = -3.7
	definitionId = PPRODN_OAF-O-01222_down

[CrossSection]
	id = OAF-O-02370_0.1
	branchid = OAF-O-02370
	chainage = 0.1
	shift = -4.199999999999999
	definitionId = PPROUP_OAF-O-02370_up

[CrossSection]
	id = OAF-O-02370_28.7
	branchid = OAF-O-02370
	chainage = 28.67384061402932
	shift = -4.16
	definitionId = PPRODN_OAF-O-02370_down

[CrossSection]
	id = OAF-O-01151_0.1
	branchid = OAF-O-01151
	chainage = 0.1
	shift = -3.7
	definitionId = PPROUP_OAF-O-01151_up

[CrossSection]
	id = OAF-O-01151_28.1
	branchid = OAF-O-01151
	chainage = 28.082882005986242
	shift = -3.7
	definitionId = PPRODN_OAF-O-01151_down

[CrossSection]
	id = OAF-O-00838_0.1
	branchid = OAF-O-00838
	chainage = 0.1
	shift = 0.0
	definitionId = PPROUP_OAF-O-00838_up

[CrossSection]
	id = OAF-O-00838_19.9
	branchid = OAF-O-00838
	chainage = 19.921845179128297
	shift = 0.0
	definitionId = PPRODN_OAF-O-00838_down

[CrossSection]
	id = OAF-O-02480_0.1
	branchid = OAF-O-02480
	chainage = 0.1
	shift = -5.800000000000001
	definitionId = PPROUP_OAF-O-02480_up

[CrossSection]
	id = OAF-O-02480_11.9
	branchid = OAF-O-02480
	chainage = 11.89980909607292
	shift = -5.800000000000001
	definitionId = PPRODN_OAF-O-02480_down

[CrossSection]
	id = OAF-O-02393_0.1
	branchid = OAF-O-02393
	chainage = 0.1
	shift = -1.9
	definitionId = PPROUP_OAF-O-02393_up

[CrossSection]
	id = OAF-O-02393_46.5
	branchid = OAF-O-02393
	chainage = 46.45109307381133
	shift = -2.0
	definitionId = PPRODN_OAF-O-02393_down

[CrossSection]
	id = OAF-O-02383_0.1
	branchid = OAF-O-02383
	chainage = 0.1
	shift = -1.95
	definitionId = PPROUP_OAF-O-02383_up

[CrossSection]
	id = OAF-O-02383_95.4
	branchid = OAF-O-02383
	chainage = 95.42468010517554
	shift = -1.95
	definitionId = PPRODN_OAF-O-02383_down

[CrossSection]
	id = OAF-O-02395_0.1
	branchid = OAF-O-02395
	chainage = 0.1
	shift = -2.58
	definitionId = PPROUP_OAF-O-02395_up

[CrossSection]
	id = OAF-O-02395_40.1
	branchid = OAF-O-02395
	chainage = 40.09311431674636
	shift = -2.68
	definitionId = PPRODN_OAF-O-02395_down

[CrossSection]
	id = OAF-O-02415_0.1
	branchid = OAF-O-02415
	chainage = 0.1
	shift = -4.3
	definitionId = PPROUP_OAF-O-02415_up

[CrossSection]
	id = OAF-O-02415_6.8
	branchid = OAF-O-02415
	chainage = 6.801264271280149
	shift = -4.3
	definitionId = PPRODN_OAF-O-02415_down

[CrossSection]
	id = OAF-O-00084_0.1
	branchid = OAF-O-00084
	chainage = 0.1
	shift = -1.89
	definitionId = PPROUP_OAF-O-00084_up

[CrossSection]
	id = OAF-O-00084_10.3
	branchid = OAF-O-00084
	chainage = 10.258564872092254
	shift = -1.89
	definitionId = PPRODN_OAF-O-00084_down

[CrossSection]
	id = OAF-O-00217_0.1
	branchid = OAF-O-00217
	chainage = 0.1
	shift = -3.85
	definitionId = PPROUP_OAF-O-00217_up

[CrossSection]
	id = OAF-O-00217_355.7
	branchid = OAF-O-00217
	chainage = 355.73420362278085
	shift = -3.85
	definitionId = PPRODN_OAF-O-00217_down

[CrossSection]
	id = OAF-O-00215_0.1
	branchid = OAF-O-00215
	chainage = 0.1
	shift = -2.25
	definitionId = PPROUP_OAF-O-00215_up

[CrossSection]
	id = OAF-O-00215_2.8
	branchid = OAF-O-00215
	chainage = 2.8091512590963204
	shift = -2.25
	definitionId = PPRODN_OAF-O-00215_down

[CrossSection]
	id = OAF-O-00216_0.1
	branchid = OAF-O-00216
	chainage = 0.1
	shift = -1.89
	definitionId = PPROUP_OAF-O-00216_up

[CrossSection]
	id = OAF-O-00216_1.0
	branchid = OAF-O-00216
	chainage = 0.9991376721423074
	shift = -1.89
	definitionId = PPRODN_OAF-O-00216_down

[CrossSection]
	id = OAF-O-00213_0.1
	branchid = OAF-O-00213
	chainage = 0.1
	shift = -1.89
	definitionId = PPROUP_OAF-O-00213_up

[CrossSection]
	id = OAF-O-00213_2.4
	branchid = OAF-O-00213
	chainage = 2.368410590809078
	shift = -1.89
	definitionId = PPRODN_OAF-O-00213_down

[CrossSection]
	id = OAF-O-00214_0.1
	branchid = OAF-O-00214
	chainage = 0.1
	shift = -1.89
	definitionId = PPROUP_OAF-O-00214_up

[CrossSection]
	id = OAF-O-00214_4.1
	branchid = OAF-O-00214
	chainage = 4.0986269511373905
	shift = -1.89
	definitionId = PPRODN_OAF-O-00214_down

[CrossSection]
	id = OAF-O-00218_0.1
	branchid = OAF-O-00218
	chainage = 0.1
	shift = -2.25
	definitionId = PPROUP_OAF-O-00218_up

[CrossSection]
	id = OAF-O-00218_8.0
	branchid = OAF-O-00218
	chainage = 7.975183480948937
	shift = -2.25
	definitionId = PPRODN_OAF-O-00218_down

[CrossSection]
	id = OAF-O-02387_0.1
	branchid = OAF-O-02387
	chainage = 0.1
	shift = -1.95
	definitionId = PPROUP_OAF-O-02387_up

[CrossSection]
	id = OAF-O-02387_2.6
	branchid = OAF-O-02387
	chainage = 2.595518580716153
	shift = -1.95
	definitionId = PPRODN_OAF-O-02387_down

[CrossSection]
	id = OAF-O-02386_0.1
	branchid = OAF-O-02386
	chainage = 0.1
	shift = -2.25
	definitionId = PPROUP_OAF-O-02386_up

[CrossSection]
	id = OAF-O-02386_13.2
	branchid = OAF-O-02386
	chainage = 13.233805157131966
	shift = -2.25
	definitionId = PPRODN_OAF-O-02386_down

[CrossSection]
	id = OAF-E-00466_0.1
	branchid = OAF-E-00466
	chainage = 0.1
	shift = 0.0
	definitionId = PPROUP_OAF-E-00466_up

[CrossSection]
	id = OAF-E-00466_20.9
	branchid = OAF-E-00466
	chainage = 20.91816879916595
	shift = 0.0
	definitionId = PPRODN_OAF-E-00466_down

