# Generated with D-HyDAMO in delftd3fmpy v.1.1.2 on 2021-03-30 18:57:11.
# Tested and compatible with D-Flow FM 1.2.105.67228M, DIMRset 2.13.02.67836 and D-HYDRO suite 1D2D (Beta) 0.9.6.51435.
# 
[General]
fileVersion = 1.01
fileType = crossLoc

[CrossSection]
	id = OAF-O-00782_351.8
	branchid = OAF-O-00782
	chainage = 351.789
	shift = 0.0
	definitionId = 20010612-5

[CrossSection]
	id = OAF-O-00899_13.8
	branchid = OAF-O-00899
	chainage = 13.803
	shift = 0.0
	definitionId = 20030207-1

[CrossSection]
	id = OAF-O-00902_27.6
	branchid = OAF-O-00902
	chainage = 27.602
	shift = 0.0
	definitionId = 20030207-2

[CrossSection]
	id = OAF-O-00074_19.3
	branchid = OAF-O-00074
	chainage = 19.321
	shift = 0.0
	definitionId = 20030207-3

[CrossSection]
	id = OAF-O-00075_478.4
	branchid = OAF-O-00075
	chainage = 478.438
	shift = 0.0
	definitionId = 20030211-2

[CrossSection]
	id = OAF-O-00076_24.5
	branchid = OAF-O-00076
	chainage = 24.494
	shift = 0.0
	definitionId = 20030211-3

[CrossSection]
	id = OAF-O-00077_60.2
	branchid = OAF-O-00077
	chainage = 60.234
	shift = 0.0
	definitionId = 20030211-4

[CrossSection]
	id = OAF-O-00893_583.2
	branchid = OAF-O-00893
	chainage = 583.229
	shift = 0.0
	definitionId = 20030211-5

[CrossSection]
	id = OAF-O-00895_253.9
	branchid = OAF-O-00895
	chainage = 253.932
	shift = 0.0
	definitionId = 20030211-6

[CrossSection]
	id = OAF-O-00894_166.5
	branchid = OAF-O-00894
	chainage = 166.521
	shift = 0.0
	definitionId = 20030211-7

[CrossSection]
	id = OAF-O-00896_43.9
	branchid = OAF-O-00896
	chainage = 43.854
	shift = 0.0
	definitionId = 20030211-8

[CrossSection]
	id = OAF-O-00048_52.3
	branchid = OAF-O-00048
	chainage = 52.328
	shift = 0.0
	definitionId = 20030212-3

[CrossSection]
	id = OAF-O-00054_269.8
	branchid = OAF-O-00054
	chainage = 269.8
	shift = 0.0
	definitionId = 20030212-4

[CrossSection]
	id = OAF-O-00062_182.3
	branchid = OAF-O-00062
	chainage = 182.283
	shift = 0.0
	definitionId = 20030212-5

[CrossSection]
	id = OAF-O-00061_310.2
	branchid = OAF-O-00061
	chainage = 310.219
	shift = 0.0
	definitionId = 20030212-6

[CrossSection]
	id = OAF-O-00065_206.5
	branchid = OAF-O-00065
	chainage = 206.524
	shift = 0.0
	definitionId = 20030217-1

[CrossSection]
	id = OAF-O-00063_589.2
	branchid = OAF-O-00063
	chainage = 589.238
	shift = 0.0
	definitionId = 20030217-2

[CrossSection]
	id = OAF-O-00064_372.1
	branchid = OAF-O-00064
	chainage = 372.113
	shift = 0.0
	definitionId = 20030217-4

[CrossSection]
	id = OAF-O-00070_129.0
	branchid = OAF-O-00070
	chainage = 129.0
	shift = 0.0
	definitionId = 20030217-5

[CrossSection]
	id = OAF-O-00071_44.6
	branchid = OAF-O-00071
	chainage = 44.609
	shift = 0.0
	definitionId = 20030217-6

[CrossSection]
	id = OAF-O-00069_117.2
	branchid = OAF-O-00069
	chainage = 117.17
	shift = 0.0
	definitionId = 20030217-7

[CrossSection]
	id = OAF-O-00068_97.2
	branchid = OAF-O-00068
	chainage = 97.245
	shift = 0.0
	definitionId = 20030217-8

[CrossSection]
	id = OAF-O-00066_680.3
	branchid = OAF-O-00066
	chainage = 680.295
	shift = 0.0
	definitionId = 20030217-9

[CrossSection]
	id = OAF-O-01090_196.5
	branchid = OAF-O-01090
	chainage = 196.531
	shift = 0.0
	definitionId = 20030221-1

[CrossSection]
	id = OAF-O-00089_24.8
	branchid = OAF-O-00089
	chainage = 24.761
	shift = 0.0
	definitionId = 20030226-1

[CrossSection]
	id = OAF-O-01043_40.6
	branchid = OAF-O-01043
	chainage = 40.626
	shift = 0.0
	definitionId = 20030226-2

[CrossSection]
	id = OAF-O-00897_311.0
	branchid = OAF-O-00897
	chainage = 311.016
	shift = 0.0
	definitionId = 20030226-3

[CrossSection]
	id = OAF-O-00088_59.0
	branchid = OAF-O-00088
	chainage = 58.989
	shift = 0.0
	definitionId = 20030310-1

[CrossSection]
	id = OAF-O-00078_268.9
	branchid = OAF-O-00078
	chainage = 268.857
	shift = 0.0
	definitionId = 20030310-10

[CrossSection]
	id = OAF-O-00083_672.5
	branchid = OAF-O-00083
	chainage = 672.482
	shift = 0.0
	definitionId = 20030310-11

[CrossSection]
	id = OAF-O-02396_134.4
	branchid = OAF-O-02396
	chainage = 134.388
	shift = 0.0
	definitionId = 20030310-2

[CrossSection]
	id = OAF-O-00898_153.2
	branchid = OAF-O-00898
	chainage = 153.156
	shift = 0.0
	definitionId = 20030310-3

[CrossSection]
	id = OAF-O-00090_162.4
	branchid = OAF-O-00090
	chainage = 162.361
	shift = 0.0
	definitionId = 20030310-4

[CrossSection]
	id = OAF-O-00091_38.5
	branchid = OAF-O-00091
	chainage = 38.505
	shift = 0.0
	definitionId = 20030310-5

[CrossSection]
	id = OAF-O-00092_285.1
	branchid = OAF-O-00092
	chainage = 285.077
	shift = 0.0
	definitionId = 20030310-6

[CrossSection]
	id = OAF-O-00093_143.7
	branchid = OAF-O-00093
	chainage = 143.655
	shift = 0.0
	definitionId = 20030310-7

[CrossSection]
	id = OAF-O-00086_26.8
	branchid = OAF-O-00086
	chainage = 26.773
	shift = 0.0
	definitionId = 20030310-8

[CrossSection]
	id = OAF-O-00085_229.3
	branchid = OAF-O-00085
	chainage = 229.278
	shift = 0.0
	definitionId = 20030310-9

[CrossSection]
	id = OAF-O-00081_651.1
	branchid = OAF-O-00081
	chainage = 651.097
	shift = 0.0
	definitionId = 20030312-1

[CrossSection]
	id = OAF-O-00081_227.5
	branchid = OAF-O-00081
	chainage = 227.541
	shift = 0.0
	definitionId = 20030312-2

[CrossSection]
	id = OAF-O-00080_16.6
	branchid = OAF-O-00080
	chainage = 16.65
	shift = 0.0
	definitionId = 20030312-3

[CrossSection]
	id = OAF-O-00101_386.6
	branchid = OAF-O-00101
	chainage = 386.595
	shift = 0.0
	definitionId = 20030312-4

[CrossSection]
	id = OAF-O-00102_209.6
	branchid = OAF-O-00102
	chainage = 209.59
	shift = 0.0
	definitionId = 20030312-5

[CrossSection]
	id = OAF-O-00103_190.1
	branchid = OAF-O-00103
	chainage = 190.147
	shift = 0.0
	definitionId = 20030312-6

[CrossSection]
	id = OAF-O-00098_119.6
	branchid = OAF-O-00098
	chainage = 119.593
	shift = 0.0
	definitionId = 20030312-7

[CrossSection]
	id = OAF-O-00094_1001.7
	branchid = OAF-O-00094
	chainage = 1001.711
	shift = 0.0
	definitionId = 20030312-8

[CrossSection]
	id = OAF-O-00095_98.6
	branchid = OAF-O-00095
	chainage = 98.608
	shift = 0.0
	definitionId = 20030312-9

[CrossSection]
	id = OAF-O-00096_335.3
	branchid = OAF-O-00096
	chainage = 335.327
	shift = 0.0
	definitionId = 20030313-1

[CrossSection]
	id = OAF-O-00107_562.9
	branchid = OAF-O-00107
	chainage = 562.881
	shift = 0.0
	definitionId = 20030313-2

[CrossSection]
	id = OAF-O-00107_251.7
	branchid = OAF-O-00107
	chainage = 251.674
	shift = 0.0
	definitionId = 20030313-3

[CrossSection]
	id = OAF-O-00106_215.2
	branchid = OAF-O-00106
	chainage = 215.177
	shift = 0.0
	definitionId = 20030313-4

[CrossSection]
	id = OAF-O-00104_185.2
	branchid = OAF-O-00104
	chainage = 185.247
	shift = 0.0
	definitionId = 20030313-5

[CrossSection]
	id = OAF-O-00114_307.7
	branchid = OAF-O-00114
	chainage = 307.661
	shift = 0.0
	definitionId = 20030403-1

[CrossSection]
	id = OAF-O-00122_9.5
	branchid = OAF-O-00122
	chainage = 9.479
	shift = 0.0
	definitionId = 20030403-10

[CrossSection]
	id = OAF-O-01030_59.2
	branchid = OAF-O-01030
	chainage = 59.205
	shift = 0.0
	definitionId = 20030403-2

[CrossSection]
	id = OAF-O-00115_189.8
	branchid = OAF-O-00115
	chainage = 189.776
	shift = 0.0
	definitionId = 20030403-3

[CrossSection]
	id = OAF-O-00117_129.1
	branchid = OAF-O-00117
	chainage = 129.142
	shift = 0.0
	definitionId = 20030403-4

[CrossSection]
	id = OAF-O-00118_50.4
	branchid = OAF-O-00118
	chainage = 50.371
	shift = 0.0
	definitionId = 20030403-5

[CrossSection]
	id = OAF-O-00120_162.5
	branchid = OAF-O-00120
	chainage = 162.465
	shift = 0.0
	definitionId = 20030403-7

[CrossSection]
	id = OAF-O-00119_625.5
	branchid = OAF-O-00119
	chainage = 625.464
	shift = 0.0
	definitionId = 20030403-8

[CrossSection]
	id = OAF-O-00121_670.6
	branchid = OAF-O-00121
	chainage = 670.576
	shift = 0.0
	definitionId = 20030403-9

[CrossSection]
	id = OAF-O-00127_292.5
	branchid = OAF-O-00127
	chainage = 292.47
	shift = 0.0
	definitionId = 20030404-1

[CrossSection]
	id = OAF-O-00950_362.0
	branchid = OAF-O-00950
	chainage = 362.042
	shift = 0.0
	definitionId = 20030404-10

[CrossSection]
	id = OAF-O-00139_51.3
	branchid = OAF-O-00139
	chainage = 51.261
	shift = 0.0
	definitionId = 20030404-11

[CrossSection]
	id = OAF-O-00140_74.9
	branchid = OAF-O-00140
	chainage = 74.872
	shift = 0.0
	definitionId = 20030404-12

[CrossSection]
	id = OAF-O-00141_462.4
	branchid = OAF-O-00141
	chainage = 462.402
	shift = 0.0
	definitionId = 20030404-13

[CrossSection]
	id = OAF-O-00126_318.2
	branchid = OAF-O-00126
	chainage = 318.172
	shift = 0.0
	definitionId = 20030404-2

[CrossSection]
	id = OAF-O-00124_305.4
	branchid = OAF-O-00124
	chainage = 305.406
	shift = 0.0
	definitionId = 20030404-3

[CrossSection]
	id = OAF-O-00123_409.0
	branchid = OAF-O-00123
	chainage = 409.044
	shift = 0.0
	definitionId = 20030404-4

[CrossSection]
	id = OAF-O-00134_185.8
	branchid = OAF-O-00134
	chainage = 185.844
	shift = 0.0
	definitionId = 20030404-5

[CrossSection]
	id = OAF-O-00901_78.5
	branchid = OAF-O-00901
	chainage = 78.53
	shift = 0.0
	definitionId = 20030404-6

[CrossSection]
	id = OAF-O-00132_331.3
	branchid = OAF-O-00132
	chainage = 331.338
	shift = 0.0
	definitionId = 20030404-7

[CrossSection]
	id = OAF-O-00131_23.5
	branchid = OAF-O-00131
	chainage = 23.549
	shift = 0.0
	definitionId = 20030404-8

[CrossSection]
	id = OAF-O-00130_566.4
	branchid = OAF-O-00130
	chainage = 566.442
	shift = 0.0
	definitionId = 20030404-9

[CrossSection]
	id = OAF-O-00146_31.9
	branchid = OAF-O-00146
	chainage = 31.906
	shift = 0.0
	definitionId = 20030407-1

[CrossSection]
	id = OAF-O-00957_151.0
	branchid = OAF-O-00957
	chainage = 150.958
	shift = 0.0
	definitionId = 20030407-2

[CrossSection]
	id = OAF-O-00147_268.4
	branchid = OAF-O-00147
	chainage = 268.386
	shift = 0.0
	definitionId = 20030407-3

[CrossSection]
	id = OAF-O-00960_73.5
	branchid = OAF-O-00960
	chainage = 73.499
	shift = 0.0
	definitionId = 20030407-4

[CrossSection]
	id = OAF-O-00149_380.7
	branchid = OAF-O-00149
	chainage = 380.67
	shift = 0.0
	definitionId = 20030407-5

[CrossSection]
	id = OAF-O-00166_0.5
	branchid = OAF-O-00166
	chainage = 0.462
	shift = 0.0
	definitionId = 20030407-7

[CrossSection]
	id = OAF-O-00164_13.4
	branchid = OAF-O-00164
	chainage = 13.447
	shift = 0.0
	definitionId = 20030407-8

[CrossSection]
	id = OAF-O-00152_436.2
	branchid = OAF-O-00152
	chainage = 436.224
	shift = 0.0
	definitionId = 20030408-1

[CrossSection]
	id = OAF-O-00137_62.0
	branchid = OAF-O-00137
	chainage = 61.98
	shift = 0.0
	definitionId = 20030408-10

[CrossSection]
	id = OAF-O-00138_273.3
	branchid = OAF-O-00138
	chainage = 273.258
	shift = 0.0
	definitionId = 20030408-11

[CrossSection]
	id = OAF-O-00143_519.2
	branchid = OAF-O-00143
	chainage = 519.2
	shift = 0.0
	definitionId = 20030408-12

[CrossSection]
	id = OAF-O-00144_427.0
	branchid = OAF-O-00144
	chainage = 426.958
	shift = 0.0
	definitionId = 20030408-13

[CrossSection]
	id = OAF-O-00153_66.2
	branchid = OAF-O-00153
	chainage = 66.215
	shift = 0.0
	definitionId = 20030408-2

[CrossSection]
	id = OAF-O-00997_84.5
	branchid = OAF-O-00997
	chainage = 84.521
	shift = 0.0
	definitionId = 20030408-4

[CrossSection]
	id = OAF-O-00997_273.8
	branchid = OAF-O-00997
	chainage = 273.829
	shift = 0.0
	definitionId = 20030408-5

[CrossSection]
	id = OAF-O-00158_307.7
	branchid = OAF-O-00158
	chainage = 307.721
	shift = 0.0
	definitionId = 20030408-7

[CrossSection]
	id = OAF-O-00166_853.7
	branchid = OAF-O-00166
	chainage = 853.686
	shift = 0.0
	definitionId = 20030408-9

[CrossSection]
	id = OAF-O-00779_71.8
	branchid = OAF-O-00779
	chainage = 71.816
	shift = 0.0
	definitionId = 20060316-0722

[CrossSection]
	id = OAF-O-00779_180.0
	branchid = OAF-O-00779
	chainage = 179.985
	shift = 0.0
	definitionId = 20060316-0723

[CrossSection]
	id = OAF-O-00779_284.5
	branchid = OAF-O-00779
	chainage = 284.492
	shift = 0.0
	definitionId = 20060316-0724

[CrossSection]
	id = OAF-O-00779_385.4
	branchid = OAF-O-00779
	chainage = 385.429
	shift = 0.0
	definitionId = 20060316-0725

[CrossSection]
	id = OAF-O-00779_485.0
	branchid = OAF-O-00779
	chainage = 484.961
	shift = 0.0
	definitionId = 20060316-0726

[CrossSection]
	id = OAF-O-00779_585.3
	branchid = OAF-O-00779
	chainage = 585.289
	shift = 0.0
	definitionId = 20060316-0727

[CrossSection]
	id = OAF-O-00780_38.3
	branchid = OAF-O-00780
	chainage = 38.29
	shift = 0.0
	definitionId = 20060316-0728

[CrossSection]
	id = OAF-O-00780_138.9
	branchid = OAF-O-00780
	chainage = 138.89
	shift = 0.0
	definitionId = 20060316-0729

[CrossSection]
	id = OAF-O-00780_240.9
	branchid = OAF-O-00780
	chainage = 240.889
	shift = 0.0
	definitionId = 20060316-0730

[CrossSection]
	id = OAF-O-00781_3.2
	branchid = OAF-O-00781
	chainage = 3.175
	shift = 0.0
	definitionId = 20060316-0732

[CrossSection]
	id = OAF-O-00781_102.5
	branchid = OAF-O-00781
	chainage = 102.48
	shift = 0.0
	definitionId = 20060316-0733

[CrossSection]
	id = OAF-O-00781_199.7
	branchid = OAF-O-00781
	chainage = 199.721
	shift = 0.0
	definitionId = 20060316-0734

[CrossSection]
	id = OAF-O-00781_292.1
	branchid = OAF-O-00781
	chainage = 292.076
	shift = 0.0
	definitionId = 20060316-0735

[CrossSection]
	id = OAF-O-00781_391.5
	branchid = OAF-O-00781
	chainage = 391.523
	shift = 0.0
	definitionId = 20060316-0736

[CrossSection]
	id = OAF-O-00781_483.7
	branchid = OAF-O-00781
	chainage = 483.729
	shift = 0.0
	definitionId = 20060316-0737

[CrossSection]
	id = OAF-O-00781_582.4
	branchid = OAF-O-00781
	chainage = 582.429
	shift = 0.0
	definitionId = 20060316-0738

[CrossSection]
	id = OAF-O-00781_683.7
	branchid = OAF-O-00781
	chainage = 683.653
	shift = 0.0
	definitionId = 20060316-0739

[CrossSection]
	id = OAF-O-00996_483.6
	branchid = OAF-O-00996
	chainage = 483.582
	shift = 0.0
	definitionId = 20060316-0804

[CrossSection]
	id = OAF-O-00996_57.1
	branchid = OAF-O-00996
	chainage = 57.133
	shift = 0.0
	definitionId = 20060316-0808

[CrossSection]
	id = OAF-O-00792_82.8
	branchid = OAF-O-00792
	chainage = 82.752
	shift = 0.0
	definitionId = 20080820-5

[CrossSection]
	id = OAF-O-00834_183.8
	branchid = OAF-O-00834
	chainage = 183.752
	shift = 0.0
	definitionId = 20080820-6

[CrossSection]
	id = OAF-O-00056_550.1
	branchid = OAF-O-00056
	chainage = 550.12
	shift = 0.0
	definitionId = CARLSON_BW_71494

[CrossSection]
	id = OAF-O-00056_429.2
	branchid = OAF-O-00056
	chainage = 429.198
	shift = 0.0
	definitionId = CARLSON_BW_71495

[CrossSection]
	id = OAF-O-00056_315.3
	branchid = OAF-O-00056
	chainage = 315.308
	shift = 0.0
	definitionId = CARLSON_BW_71496

[CrossSection]
	id = OAF-O-00056_203.7
	branchid = OAF-O-00056
	chainage = 203.655
	shift = 0.0
	definitionId = CARLSON_BW_71497

[CrossSection]
	id = OAF-O-00056_29.7
	branchid = OAF-O-00056
	chainage = 29.69
	shift = 0.0
	definitionId = CARLSON_BW_71498

[CrossSection]
	id = OAF-O-00160_300.7
	branchid = OAF-O-00160
	chainage = 300.694
	shift = 0.0
	definitionId = DP20140225-03

[CrossSection]
	id = OAF-O-00781_475.2
	branchid = OAF-O-00781
	chainage = 475.21
	shift = 0.0
	definitionId = DP20140225-08

[CrossSection]
	id = OAF-O-00780_419.4
	branchid = OAF-O-00780
	chainage = 419.437
	shift = 0.0
	definitionId = DP20140225-09

[CrossSection]
	id = OAF-O-00779_571.1
	branchid = OAF-O-00779
	chainage = 571.073
	shift = 0.0
	definitionId = DP20140227-04

[CrossSection]
	id = OAF-O-00113_9.8
	branchid = OAF-O-00113
	chainage = 9.765
	shift = 0.0
	definitionId = TB0028-160608133002

[CrossSection]
	id = OAF-O-00791_138.1
	branchid = OAF-O-00791
	chainage = 138.094
	shift = 0.0
	definitionId = TB0028-160608134334

[CrossSection]
	id = OAF-O-00151_142.8
	branchid = OAF-O-00151
	chainage = 142.846
	shift = 0.0
	definitionId = TB0028-160613143818

[CrossSection]
	id = OAF-O-00163_492.3
	branchid = OAF-O-00163
	chainage = 492.313
	shift = 0.0
	definitionId = TB0028-160614092134

[CrossSection]
	id = OAF-O-00142_320.5
	branchid = OAF-O-00142
	chainage = 320.492
	shift = 0.0
	definitionId = TB0028-160614094537

[CrossSection]
	id = OAF-O-00145_52.8
	branchid = OAF-O-00145
	chainage = 52.794
	shift = 0.0
	definitionId = TB0028-160614100305

[CrossSection]
	id = OAF-O-00168_67.4
	branchid = OAF-O-00168
	chainage = 67.355
	shift = 0.0
	definitionId = TB0028-160614101821

[CrossSection]
	id = OAF-O-00136_78.1
	branchid = OAF-O-00136
	chainage = 78.125
	shift = 0.0
	definitionId = TB0028-160614110029

[CrossSection]
	id = OAF-O-00135_147.3
	branchid = OAF-O-00135
	chainage = 147.277
	shift = 0.0
	definitionId = TB0028-160614111052

[CrossSection]
	id = OAF-O-00133_241.8
	branchid = OAF-O-00133
	chainage = 241.847
	shift = 0.0
	definitionId = TB0028-160614113003

[CrossSection]
	id = OAF-O-00900_989.3
	branchid = OAF-O-00900
	chainage = 989.286
	shift = 0.0
	definitionId = TB0028-160614114327

[CrossSection]
	id = OAF-O-00112_223.2
	branchid = OAF-O-00112
	chainage = 223.16
	shift = 0.0
	definitionId = TB0028-160614124202

[CrossSection]
	id = OAF-O-00111_1032.8
	branchid = OAF-O-00111
	chainage = 1032.808
	shift = 0.0
	definitionId = TB0028-160614131524

[CrossSection]
	id = OAF-O-00110_280.1
	branchid = OAF-O-00110
	chainage = 280.128
	shift = 0.0
	definitionId = TB0028-160615091700

[CrossSection]
	id = OAF-O-00109_641.5
	branchid = OAF-O-00109
	chainage = 641.487
	shift = 0.0
	definitionId = TB0028-160615094742

[CrossSection]
	id = OAF-O-00099_478.2
	branchid = OAF-O-00099
	chainage = 478.164
	shift = 0.0
	definitionId = TB0028-160615111909

[CrossSection]
	id = OAF-O-00797_78.3
	branchid = OAF-O-00797
	chainage = 78.334
	shift = 0.0
	definitionId = TB0028-160616132314

[CrossSection]
	id = OAF-O-02391_314.5
	branchid = OAF-O-02391
	chainage = 314.542
	shift = 0.0
	definitionId = TB0028-160616133827

[CrossSection]
	id = OAF-O-00815_78.7
	branchid = OAF-O-00815
	chainage = 78.709
	shift = 0.0
	definitionId = TB0028-160616140922

[CrossSection]
	id = OAF-O-00055_91.8
	branchid = OAF-O-00055
	chainage = 91.822
	shift = 0.0
	definitionId = TB0028-160622101429

[CrossSection]
	id = OAF-O-02485_141.0
	branchid = OAF-O-02485
	chainage = 141.013
	shift = 0.0
	definitionId = TB0028-160622111531

[CrossSection]
	id = OAF-O-00053_45.6
	branchid = OAF-O-00053
	chainage = 45.645
	shift = 0.0
	definitionId = TB0028-160627102359

[CrossSection]
	id = OAF-O-00125_60.0
	branchid = OAF-O-00125
	chainage = 60.027
	shift = 0.0
	definitionId = TB0028-160628122405

[CrossSection]
	id = OAF-O-00995_33.5
	branchid = OAF-O-00995
	chainage = 33.488
	shift = 0.0
	definitionId = TB0028-160704110636

[CrossSection]
	id = OAF-O-00962_506.4
	branchid = OAF-O-00962
	chainage = 506.441
	shift = 0.0
	definitionId = TB0028-180904110737

[CrossSection]
	id = OAF-O-00962_36.0
	branchid = OAF-O-00962
	chainage = 36.024
	shift = 0.0
	definitionId = TB0028-180904113148

