# Generated with D-HyDAMO in delftd3fmpy v.1.1.2 on 2021-06-18 13:18:57.
# Tested and compatible with D-Flow FM 1.2.105.67228M, DIMRset 2.13.02.67836 and D-HYDRO suite 1D2D (Beta) 0.9.6.51435.
# 
[General]
fileVersion = 2.00
fileType = structure

[Structure]
	type = culvert
	id = KDU-O-01501
	branchid = OAF-O-00114
	chainage = 287.297
	allowedFlowDir = both
	leftLevel = -2.44
	rightLevel = -2.42
	csDefId = KDU-O-01501
	length = 10.0
	inletLossCoeff = 0.7
	outletLossCoeff = 0.7
	valveOnOff = 0
	numLossCoeff = 0
	bedFrictionType = Strickler
	bedFriction = 70

[Structure]
	type = culvert
	id = KDU-O-01497
	branchid = OAF-O-00114
	chainage = 4.973
	allowedFlowDir = both
	leftLevel = -2.13
	rightLevel = -1.9500000000000002
	csDefId = KDU-O-01497
	length = 10.0
	inletLossCoeff = 0.7
	outletLossCoeff = 0.7
	valveOnOff = 0
	numLossCoeff = 0
	bedFrictionType = Strickler
	bedFriction = 70

[Structure]
	type = culvert
	id = KDU-O-01161
	branchid = OAF-O-00956
	chainage = 0.1
	allowedFlowDir = both
	leftLevel = nan
	rightLevel = nan
	csDefId = KDU-O-01161
	length = 8.0
	inletLossCoeff = 0.7
	outletLossCoeff = 0.7
	valveOnOff = 0
	numLossCoeff = 0
	bedFrictionType = Strickler
	bedFriction = 70

[Structure]
	type = culvert
	id = KDU-O-01168
	branchid = OAF-O-00146
	chainage = 0.198
	allowedFlowDir = both
	leftLevel = nan
	rightLevel = nan
	csDefId = KDU-O-01168
	length = 7.0
	inletLossCoeff = 0.7
	outletLossCoeff = 0.7
	valveOnOff = 0
	numLossCoeff = 0
	bedFrictionType = Strickler
	bedFriction = 70

[Structure]
	type = culvert
	id = KDU-O-01160
	branchid = OAF-O-00955
	chainage = 0.1
	allowedFlowDir = both
	leftLevel = nan
	rightLevel = nan
	csDefId = KDU-O-01160
	length = 12.0
	inletLossCoeff = 0.7
	outletLossCoeff = 0.7
	valveOnOff = 0
	numLossCoeff = 0
	bedFrictionType = Strickler
	bedFriction = 70

[Structure]
	type = culvert
	id = KDU-O-01377
	branchid = OAF-O-00066
	chainage = 11.254
	allowedFlowDir = both
	leftLevel = -2.04
	rightLevel = -1.99
	csDefId = KDU-O-01377
	length = 22.0
	inletLossCoeff = 0.7
	outletLossCoeff = 0.7
	valveOnOff = 0
	numLossCoeff = 0
	bedFrictionType = Strickler
	bedFriction = 70

[Structure]
	type = culvert
	id = KDU-O-01469
	branchid = OAF-O-00075
	chainage = 62.182
	allowedFlowDir = both
	leftLevel = nan
	rightLevel = nan
	csDefId = KDU-O-01469
	length = 7.0
	inletLossCoeff = 0.7
	outletLossCoeff = 0.7
	valveOnOff = 0
	numLossCoeff = 0
	bedFrictionType = Strickler
	bedFriction = 70

[Structure]
	type = culvert
	id = KDU-O-01445
	branchid = OAF-O-00088
	chainage = 3.513
	allowedFlowDir = both
	leftLevel = nan
	rightLevel = nan
	csDefId = KDU-O-01445
	length = 8.0
	inletLossCoeff = 0.7
	outletLossCoeff = 0.7
	valveOnOff = 0
	numLossCoeff = 0
	bedFrictionType = Strickler
	bedFriction = 70

[Structure]
	type = culvert
	id = KDU-O-01475
	branchid = OAF-O-02391
	chainage = 342.994
	allowedFlowDir = both
	leftLevel = nan
	rightLevel = nan
	csDefId = KDU-O-01475
	length = 7.0
	inletLossCoeff = 0.7
	outletLossCoeff = 0.7
	valveOnOff = 0
	numLossCoeff = 0
	bedFrictionType = Strickler
	bedFriction = 70

[Structure]
	type = culvert
	id = KDU-O-01402
	branchid = OAF-O-00902
	chainage = 395.669
	allowedFlowDir = both
	leftLevel = -1.27
	rightLevel = -1.27
	csDefId = KDU-O-01402
	length = 9.0
	inletLossCoeff = 0.7
	outletLossCoeff = 0.7
	valveOnOff = 0
	numLossCoeff = 0
	bedFrictionType = Strickler
	bedFriction = 70

[Structure]
	type = culvert
	id = KDU-O-01381
	branchid = OAF-O-00064
	chainage = 0.1
	allowedFlowDir = both
	leftLevel = nan
	rightLevel = nan
	csDefId = KDU-O-01381
	length = 8.0
	inletLossCoeff = 0.7
	outletLossCoeff = 0.7
	valveOnOff = 0
	numLossCoeff = 0
	bedFrictionType = Strickler
	bedFriction = 70

[Structure]
	type = culvert
	id = KDU-O-01461
	branchid = OAF-O-00075
	chainage = 411.863
	allowedFlowDir = both
	leftLevel = nan
	rightLevel = nan
	csDefId = KDU-O-01461
	length = 7.0
	inletLossCoeff = 0.7
	outletLossCoeff = 0.7
	valveOnOff = 0
	numLossCoeff = 0
	bedFrictionType = Strickler
	bedFriction = 70

[Structure]
	type = culvert
	id = KDU-O-01464
	branchid = OAF-O-00075
	chainage = 328.798
	allowedFlowDir = both
	leftLevel = nan
	rightLevel = nan
	csDefId = KDU-O-01464
	length = 6.0
	inletLossCoeff = 0.7
	outletLossCoeff = 0.7
	valveOnOff = 0
	numLossCoeff = 0
	bedFrictionType = Strickler
	bedFriction = 70

[Structure]
	type = culvert
	id = KDU-O-01397
	branchid = OAF-O-00902
	chainage = 49.558
	allowedFlowDir = both
	leftLevel = -1.27
	rightLevel = -1.28
	csDefId = KDU-O-01397
	length = 7.0
	inletLossCoeff = 0.7
	outletLossCoeff = 0.7
	valveOnOff = 0
	numLossCoeff = 0
	bedFrictionType = Strickler
	bedFriction = 70

[Structure]
	type = culvert
	id = KDU-O-01391
	branchid = OAF-O-00070
	chainage = 0.1
	allowedFlowDir = both
	leftLevel = -0.71
	rightLevel = -0.81
	csDefId = KDU-O-01391
	length = 7.0
	inletLossCoeff = 0.7
	outletLossCoeff = 0.7
	valveOnOff = 0
	numLossCoeff = 0
	bedFrictionType = Strickler
	bedFriction = 70

[Structure]
	type = culvert
	id = KDU-O-01404
	branchid = OAF-O-00902
	chainage = 542.664
	allowedFlowDir = both
	leftLevel = -1.5
	rightLevel = -1.48
	csDefId = KDU-O-01404
	length = 23.0
	inletLossCoeff = 0.7
	outletLossCoeff = 0.7
	valveOnOff = 0
	numLossCoeff = 0
	bedFrictionType = Strickler
	bedFriction = 70

[Structure]
	type = culvert
	id = KDU-O-01447
	branchid = OAF-O-02395
	chainage = 20.248
	allowedFlowDir = both
	leftLevel = -2.51
	rightLevel = -2.69
	csDefId = KDU-O-01447
	length = 40.0
	inletLossCoeff = 0.7
	outletLossCoeff = 0.7
	valveOnOff = 0
	numLossCoeff = 0
	bedFrictionType = Strickler
	bedFriction = 70

[Structure]
	type = culvert
	id = KDU-O-01388
	branchid = OAF-O-00065
	chainage = 0.1
	allowedFlowDir = both
	leftLevel = -1.52
	rightLevel = -1.68
	csDefId = KDU-O-01388
	length = 7.0
	inletLossCoeff = 0.7
	outletLossCoeff = 0.7
	valveOnOff = 0
	numLossCoeff = 0
	bedFrictionType = Strickler
	bedFriction = 70

[Structure]
	type = culvert
	id = KDU-O-01473
	branchid = OAF-O-02392
	chainage = 60.006
	allowedFlowDir = both
	leftLevel = nan
	rightLevel = nan
	csDefId = KDU-O-01473
	length = 10.0
	inletLossCoeff = 0.7
	outletLossCoeff = 0.7
	valveOnOff = 0
	numLossCoeff = 0
	bedFrictionType = Strickler
	bedFriction = 70

[Structure]
	type = culvert
	id = KDU-O-03606
	branchid = OAF-O-02391
	chainage = 0.1
	allowedFlowDir = both
	leftLevel = nan
	rightLevel = nan
	csDefId = KDU-O-03606
	length = 8.0
	inletLossCoeff = 0.7
	outletLossCoeff = 0.7
	valveOnOff = 0
	numLossCoeff = 0
	bedFrictionType = Strickler
	bedFriction = 70

[Structure]
	type = culvert
	id = KDU-O-01405
	branchid = OAF-O-00902
	chainage = 552.533
	allowedFlowDir = both
	leftLevel = nan
	rightLevel = nan
	csDefId = KDU-O-01405
	length = 7.0
	inletLossCoeff = 0.7
	outletLossCoeff = 0.7
	valveOnOff = 0
	numLossCoeff = 0
	bedFrictionType = Strickler
	bedFriction = 70

[Structure]
	type = culvert
	id = KDU-O-01442
	branchid = OAF-O-00088
	chainage = 146.306
	allowedFlowDir = both
	leftLevel = -3.0
	rightLevel = -3.0
	csDefId = KDU-O-01442
	length = 10.0
	inletLossCoeff = 0.7
	outletLossCoeff = 0.7
	valveOnOff = 0
	numLossCoeff = 0
	bedFrictionType = Strickler
	bedFriction = 70

[Structure]
	type = culvert
	id = KDU-O-01443
	branchid = OAF-O-00088
	chainage = 93.712
	allowedFlowDir = both
	leftLevel = -3.15
	rightLevel = -3.19
	csDefId = KDU-O-01443
	length = 9.95
	inletLossCoeff = 0.7
	outletLossCoeff = 0.7
	valveOnOff = 0
	numLossCoeff = 0
	bedFrictionType = Strickler
	bedFriction = 70

[Structure]
	type = culvert
	id = KDU-O-01449
	branchid = OAF-O-02396
	chainage = 5.496
	allowedFlowDir = both
	leftLevel = -2.27
	rightLevel = -2.29
	csDefId = KDU-O-01449
	length = 10.0
	inletLossCoeff = 0.7
	outletLossCoeff = 0.7
	valveOnOff = 0
	numLossCoeff = 0
	bedFrictionType = Strickler
	bedFriction = 70

[Structure]
	type = culvert
	id = KDU-O-01440
	branchid = OAF-O-00897
	chainage = 6.0
	allowedFlowDir = both
	leftLevel = -3.16
	rightLevel = -3.11
	csDefId = KDU-O-01440
	length = 12.0
	inletLossCoeff = 0.7
	outletLossCoeff = 0.7
	valveOnOff = 0
	numLossCoeff = 0
	bedFrictionType = Strickler
	bedFriction = 70

[Structure]
	type = culvert
	id = KDU-O-01448
	branchid = OAF-O-02396
	chainage = 228.856
	allowedFlowDir = both
	leftLevel = -2.37
	rightLevel = -2.31
	csDefId = KDU-O-01448
	length = 12.0
	inletLossCoeff = 0.7
	outletLossCoeff = 0.7
	valveOnOff = 0
	numLossCoeff = 0
	bedFrictionType = Strickler
	bedFriction = 70

[Structure]
	type = culvert
	id = KDU-O-01463
	branchid = OAF-O-00075
	chainage = 392.972
	allowedFlowDir = both
	leftLevel = -1.63
	rightLevel = -1.7
	csDefId = KDU-O-01463
	length = 10.0
	inletLossCoeff = 0.7
	outletLossCoeff = 0.7
	valveOnOff = 0
	numLossCoeff = 0
	bedFrictionType = Strickler
	bedFriction = 70

[Structure]
	type = culvert
	id = KDU-O-01466
	branchid = OAF-O-00075
	chainage = 265.399
	allowedFlowDir = both
	leftLevel = -1.48
	rightLevel = -1.56
	csDefId = KDU-O-01466
	length = 10.0
	inletLossCoeff = 0.7
	outletLossCoeff = 0.7
	valveOnOff = 0
	numLossCoeff = 0
	bedFrictionType = Strickler
	bedFriction = 70

[Structure]
	type = culvert
	id = KDU-O-01470
	branchid = OAF-O-00075
	chainage = 67.246
	allowedFlowDir = both
	leftLevel = -1.3
	rightLevel = -1.27
	csDefId = KDU-O-01470
	length = 10.0
	inletLossCoeff = 0.7
	outletLossCoeff = 0.7
	valveOnOff = 0
	numLossCoeff = 0
	bedFrictionType = Strickler
	bedFriction = 70

[Structure]
	type = culvert
	id = KDU-O-01474
	branchid = OAF-O-02392
	chainage = 32.5
	allowedFlowDir = both
	leftLevel = -1.36
	rightLevel = -1.3
	csDefId = KDU-O-01474
	length = 65.0
	inletLossCoeff = 0.7
	outletLossCoeff = 0.7
	valveOnOff = 0
	numLossCoeff = 0
	bedFrictionType = Strickler
	bedFriction = 70

[Structure]
	type = culvert
	id = KDU-O-01400
	branchid = OAF-O-00902
	chainage = 188.863
	allowedFlowDir = both
	leftLevel = -1.41
	rightLevel = -1.44
	csDefId = KDU-O-01400
	length = 22.0
	inletLossCoeff = 0.7
	outletLossCoeff = 0.7
	valveOnOff = 0
	numLossCoeff = 0
	bedFrictionType = Strickler
	bedFriction = 70

[Structure]
	type = culvert
	id = KDU-O-01410
	branchid = OAF-O-00075
	chainage = 728.078
	allowedFlowDir = both
	leftLevel = -1.68
	rightLevel = -1.63
	csDefId = KDU-O-01410
	length = 10.0
	inletLossCoeff = 0.7
	outletLossCoeff = 0.7
	valveOnOff = 0
	numLossCoeff = 0
	bedFrictionType = Strickler
	bedFriction = 70

[Structure]
	type = culvert
	id = KDU-O-01414
	branchid = OAF-O-00076
	chainage = 486.916
	allowedFlowDir = both
	leftLevel = -2.0
	rightLevel = -1.88
	csDefId = KDU-O-01414
	length = 14.0
	inletLossCoeff = 0.7
	outletLossCoeff = 0.7
	valveOnOff = 0
	numLossCoeff = 0
	bedFrictionType = Strickler
	bedFriction = 70

[Structure]
	type = culvert
	id = KDU-O-03263
	branchid = OAF-O-02386
	chainage = 6.032
	allowedFlowDir = both
	leftLevel = -1.3499999999999999
	rightLevel = -1.37
	csDefId = KDU-O-03263
	length = 12.0
	inletLossCoeff = 0.7
	outletLossCoeff = 0.7
	valveOnOff = 0
	numLossCoeff = 0
	bedFrictionType = Strickler
	bedFriction = 70

[Structure]
	type = culvert
	id = KDU-O-01375
	branchid = OAF-O-02389
	chainage = 6.331
	allowedFlowDir = both
	leftLevel = -1.51
	rightLevel = -1.48
	csDefId = KDU-O-01375
	length = 12.5
	inletLossCoeff = 0.7
	outletLossCoeff = 0.7
	valveOnOff = 0
	numLossCoeff = 0
	bedFrictionType = Strickler
	bedFriction = 70

[Structure]
	type = culvert
	id = KDU-O-01376
	branchid = OAF-O-02390
	chainage = 7.103
	allowedFlowDir = both
	leftLevel = -1.9500000000000002
	rightLevel = -1.8499999999999999
	csDefId = KDU-O-01376
	length = 14.0
	inletLossCoeff = 0.7
	outletLossCoeff = 0.7
	valveOnOff = 0
	numLossCoeff = 0
	bedFrictionType = Strickler
	bedFriction = 70

[Structure]
	type = culvert
	id = KDU-O-01380
	branchid = OAF-O-00064
	chainage = 150.904
	allowedFlowDir = both
	leftLevel = -1.17
	rightLevel = -1.17
	csDefId = KDU-O-01380
	length = 8.0
	inletLossCoeff = 0.7
	outletLossCoeff = 0.7
	valveOnOff = 0
	numLossCoeff = 0
	bedFrictionType = Strickler
	bedFriction = 70

[Structure]
	type = culvert
	id = KDU-O-01390
	branchid = OAF-O-00070
	chainage = 356.624
	allowedFlowDir = both
	leftLevel = -1.22
	rightLevel = -1.52
	csDefId = KDU-O-01390
	length = 10.0
	inletLossCoeff = 0.7
	outletLossCoeff = 0.7
	valveOnOff = 0
	numLossCoeff = 0
	bedFrictionType = Strickler
	bedFriction = 70

[Structure]
	type = culvert
	id = KDU-O-01393
	branchid = OAF-O-00895
	chainage = 522.057
	allowedFlowDir = both
	leftLevel = -1.83
	rightLevel = -1.86
	csDefId = KDU-O-01393
	length = 10.0
	inletLossCoeff = 0.7
	outletLossCoeff = 0.7
	valveOnOff = 0
	numLossCoeff = 0
	bedFrictionType = Strickler
	bedFriction = 70

[Structure]
	type = culvert
	id = KDU-O-01394
	branchid = OAF-O-00895
	chainage = 131.488
	allowedFlowDir = both
	leftLevel = -1.57
	rightLevel = -1.68
	csDefId = KDU-O-01394
	length = 5.0
	inletLossCoeff = 0.7
	outletLossCoeff = 0.7
	valveOnOff = 0
	numLossCoeff = 0
	bedFrictionType = Strickler
	bedFriction = 70

[Structure]
	type = culvert
	id = KDU-O-01396
	branchid = OAF-O-00902
	chainage = 131.875
	allowedFlowDir = both
	leftLevel = -1.27
	rightLevel = -1.32
	csDefId = KDU-O-01396
	length = 7.0
	inletLossCoeff = 0.7
	outletLossCoeff = 0.7
	valveOnOff = 0
	numLossCoeff = 0
	bedFrictionType = Strickler
	bedFriction = 70

[Structure]
	type = culvert
	id = KDU-O-01399
	branchid = OAF-O-00902
	chainage = 257.556
	allowedFlowDir = both
	leftLevel = -1.39
	rightLevel = -1.47
	csDefId = KDU-O-01399
	length = 10.0
	inletLossCoeff = 0.7
	outletLossCoeff = 0.7
	valveOnOff = 0
	numLossCoeff = 0
	bedFrictionType = Strickler
	bedFriction = 70

[Structure]
	type = culvert
	id = KDU-O-01401
	branchid = OAF-O-00902
	chainage = 315.588
	allowedFlowDir = both
	leftLevel = -1.36
	rightLevel = -1.37
	csDefId = KDU-O-01401
	length = 7.0
	inletLossCoeff = 0.7
	outletLossCoeff = 0.7
	valveOnOff = 0
	numLossCoeff = 0
	bedFrictionType = Strickler
	bedFriction = 70

[Structure]
	type = culvert
	id = KDU-O-01379
	branchid = OAF-O-00064
	chainage = 427.041
	allowedFlowDir = both
	leftLevel = -1.39
	rightLevel = -1.32
	csDefId = KDU-O-01379
	length = 16.0
	inletLossCoeff = 0.7
	outletLossCoeff = 0.7
	valveOnOff = 0
	numLossCoeff = 0
	bedFrictionType = Strickler
	bedFriction = 70

[Structure]
	type = culvert
	id = KDU-O-01403
	branchid = OAF-O-00902
	chainage = 494.01
	allowedFlowDir = both
	leftLevel = -1.47
	rightLevel = -1.33
	csDefId = KDU-O-01403
	length = 8.0
	inletLossCoeff = 0.7
	outletLossCoeff = 0.7
	valveOnOff = 0
	numLossCoeff = 0
	bedFrictionType = Strickler
	bedFriction = 70

[Structure]
	type = culvert
	id = KDU-O-01406
	branchid = OAF-O-00074
	chainage = 115.536
	allowedFlowDir = both
	leftLevel = -1.43
	rightLevel = -1.44
	csDefId = KDU-O-01406
	length = 8.0
	inletLossCoeff = 0.7
	outletLossCoeff = 0.7
	valveOnOff = 0
	numLossCoeff = 0
	bedFrictionType = Strickler
	bedFriction = 70

[Structure]
	type = culvert
	id = KDU-O-01407
	branchid = OAF-O-00074
	chainage = 296.141
	allowedFlowDir = both
	leftLevel = -1.41
	rightLevel = -1.42
	csDefId = KDU-O-01407
	length = 8.0
	inletLossCoeff = 0.7
	outletLossCoeff = 0.7
	valveOnOff = 0
	numLossCoeff = 0
	bedFrictionType = Strickler
	bedFriction = 70

[Structure]
	type = culvert
	id = KDU-O-01408
	branchid = OAF-O-00074
	chainage = 369.709
	allowedFlowDir = both
	leftLevel = -1.52
	rightLevel = -1.6
	csDefId = KDU-O-01408
	length = 8.0
	inletLossCoeff = 0.7
	outletLossCoeff = 0.7
	valveOnOff = 0
	numLossCoeff = 0
	bedFrictionType = Strickler
	bedFriction = 70

[Structure]
	type = culvert
	id = KDU-O-01409
	branchid = OAF-O-00797
	chainage = 6.648
	allowedFlowDir = both
	leftLevel = -1.68
	rightLevel = -1.69
	csDefId = KDU-O-01409
	length = 8.0
	inletLossCoeff = 0.7
	outletLossCoeff = 0.7
	valveOnOff = 0
	numLossCoeff = 0
	bedFrictionType = Strickler
	bedFriction = 70

[Structure]
	type = culvert
	id = KDU-O-01564
	branchid = OAF-O-00815
	chainage = 117.59
	allowedFlowDir = both
	leftLevel = -3.09
	rightLevel = -3.35
	csDefId = KDU-O-01564
	length = 21.0
	inletLossCoeff = 0.7
	outletLossCoeff = 0.7
	valveOnOff = 0
	numLossCoeff = 0
	bedFrictionType = Strickler
	bedFriction = 70

[Structure]
	type = culvert
	id = KDU-O-01572
	branchid = OAF-O-02393
	chainage = 23.277
	allowedFlowDir = both
	leftLevel = -1.84
	rightLevel = -1.88
	csDefId = KDU-O-01572
	length = 46.55
	inletLossCoeff = 0.7
	outletLossCoeff = 0.7
	valveOnOff = 0
	numLossCoeff = 0
	bedFrictionType = Strickler
	bedFriction = 70

[Structure]
	type = culvert
	id = KDU-O-01384
	branchid = OAF-O-02485
	chainage = 11.051
	allowedFlowDir = both
	leftLevel = -1.76
	rightLevel = -1.66
	csDefId = KDU-O-01384
	length = 20.0
	inletLossCoeff = 0.7
	outletLossCoeff = 0.7
	valveOnOff = 0
	numLossCoeff = 0
	bedFrictionType = Strickler
	bedFriction = 70

[Structure]
	type = culvert
	id = KDU-O-01395
	branchid = OAF-O-00902
	chainage = 10.522
	allowedFlowDir = both
	leftLevel = -1.07
	rightLevel = -1.01
	csDefId = KDU-O-01395
	length = 7.0
	inletLossCoeff = 0.7
	outletLossCoeff = 0.7
	valveOnOff = 0
	numLossCoeff = 0
	bedFrictionType = Strickler
	bedFriction = 70

[Structure]
	type = culvert
	id = KDU-O-01413
	branchid = OAF-O-00797
	chainage = 144.88
	allowedFlowDir = both
	leftLevel = -1.62
	rightLevel = -1.61
	csDefId = KDU-O-01413
	length = 20.0
	inletLossCoeff = 0.7
	outletLossCoeff = 0.7
	valveOnOff = 0
	numLossCoeff = 0
	bedFrictionType = Strickler
	bedFriction = 70

[Structure]
	type = culvert
	id = KDU-O-01444
	branchid = OAF-O-00087
	chainage = 60.748
	allowedFlowDir = both
	leftLevel = -2.53
	rightLevel = -2.69
	csDefId = KDU-O-01444
	length = 18.0
	inletLossCoeff = 0.7
	outletLossCoeff = 0.7
	valveOnOff = 0
	numLossCoeff = 0
	bedFrictionType = Strickler
	bedFriction = 70

[Structure]
	type = culvert
	id = KDU-O-01418
	branchid = OAF-O-00077
	chainage = 19.713
	allowedFlowDir = both
	leftLevel = -2.41
	rightLevel = -2.41
	csDefId = KDU-O-01418
	length = 24.0
	inletLossCoeff = 0.7
	outletLossCoeff = 0.7
	valveOnOff = 0
	numLossCoeff = 0
	bedFrictionType = Strickler
	bedFriction = 70

[Structure]
	type = culvert
	id = KDU-O-02667
	branchid = OAF-O-00076
	chainage = 427.504
	allowedFlowDir = both
	leftLevel = -1.96
	rightLevel = -1.8499999999999999
	csDefId = KDU-O-02667
	length = 12.35
	inletLossCoeff = 0.7
	outletLossCoeff = 0.7
	valveOnOff = 0
	numLossCoeff = 0
	bedFrictionType = Strickler
	bedFriction = 70

[Structure]
	type = culvert
	id = KDU-O-01502
	branchid = OAF-O-00791
	chainage = 281.315
	allowedFlowDir = both
	leftLevel = -1.5
	rightLevel = -1.5499999999999998
	csDefId = KDU-O-01502
	length = 8.0
	inletLossCoeff = 0.7
	outletLossCoeff = 0.7
	valveOnOff = 0
	numLossCoeff = 0
	bedFrictionType = Strickler
	bedFriction = 70

[Structure]
	type = culvert
	id = KDU-O-01505
	branchid = OAF-O-00834
	chainage = 6.795
	allowedFlowDir = both
	leftLevel = -1.62
	rightLevel = -1.62
	csDefId = KDU-O-01505
	length = 5.0
	inletLossCoeff = 0.7
	outletLossCoeff = 0.7
	valveOnOff = 0
	numLossCoeff = 0
	bedFrictionType = Strickler
	bedFriction = 70

[Structure]
	type = culvert
	id = KDU-O-01506
	branchid = OAF-O-00834
	chainage = 2.0
	allowedFlowDir = both
	leftLevel = -1.47
	rightLevel = -1.47
	csDefId = KDU-O-01506
	length = 4.0
	inletLossCoeff = 0.7
	outletLossCoeff = 0.7
	valveOnOff = 0
	numLossCoeff = 0
	bedFrictionType = Strickler
	bedFriction = 70

[Structure]
	type = culvert
	id = KDU-O-01503
	branchid = OAF-O-00834
	chainage = 96.512
	allowedFlowDir = both
	leftLevel = nan
	rightLevel = nan
	csDefId = KDU-O-01503
	length = 4.0
	inletLossCoeff = 0.7
	outletLossCoeff = 0.7
	valveOnOff = 0
	numLossCoeff = 0
	bedFrictionType = Strickler
	bedFriction = 70

[Structure]
	type = culvert
	id = KDU-O-01301
	branchid = OAF-O-00115
	chainage = 573.627
	allowedFlowDir = both
	leftLevel = nan
	rightLevel = nan
	csDefId = KDU-O-01301
	length = 8.0
	inletLossCoeff = 0.7
	outletLossCoeff = 0.7
	valveOnOff = 0
	numLossCoeff = 0
	bedFrictionType = Strickler
	bedFriction = 70

[Structure]
	type = culvert
	id = KDU-O-01156
	branchid = OAF-O-00131
	chainage = 5.85
	allowedFlowDir = both
	leftLevel = nan
	rightLevel = nan
	csDefId = KDU-O-01156
	length = 12.0
	inletLossCoeff = 0.7
	outletLossCoeff = 0.7
	valveOnOff = 0
	numLossCoeff = 0
	bedFrictionType = Strickler
	bedFriction = 70

[Structure]
	type = culvert
	id = KDU-O-03163
	branchid = OAF-O-00110
	chainage = 389.154
	allowedFlowDir = both
	leftLevel = -4.8
	rightLevel = -4.86
	csDefId = KDU-O-03163
	length = 25.66
	inletLossCoeff = 0.7
	outletLossCoeff = 0.7
	valveOnOff = 0
	numLossCoeff = 0
	bedFrictionType = Strickler
	bedFriction = 70

[Structure]
	type = culvert
	id = KDU-O-01563
	branchid = OAF-O-00950
	chainage = 341.318
	allowedFlowDir = both
	leftLevel = -3.51
	rightLevel = -3.46
	csDefId = KDU-O-01563
	length = 12.0
	inletLossCoeff = 0.7
	outletLossCoeff = 0.7
	valveOnOff = 0
	numLossCoeff = 0
	bedFrictionType = Strickler
	bedFriction = 70

[Structure]
	type = culvert
	id = KDU-O-01305
	branchid = OAF-O-00117
	chainage = 5.472
	allowedFlowDir = both
	leftLevel = -3.06
	rightLevel = -3.04
	csDefId = KDU-O-01305
	length = 7.0
	inletLossCoeff = 0.7
	outletLossCoeff = 0.7
	valveOnOff = 0
	numLossCoeff = 0
	bedFrictionType = Strickler
	bedFriction = 70

[Structure]
	type = culvert
	id = KDU-O-01159
	branchid = OAF-O-00132
	chainage = 441.918
	allowedFlowDir = both
	leftLevel = -4.27
	rightLevel = -4.13
	csDefId = KDU-O-01159
	length = 10.0
	inletLossCoeff = 0.7
	outletLossCoeff = 0.7
	valveOnOff = 0
	numLossCoeff = 0
	bedFrictionType = Strickler
	bedFriction = 70

[Structure]
	type = culvert
	id = KDU-O-01166
	branchid = OAF-O-00950
	chainage = 205.204
	allowedFlowDir = both
	leftLevel = -3.56
	rightLevel = -3.45
	csDefId = KDU-O-01166
	length = 12.0
	inletLossCoeff = 0.7
	outletLossCoeff = 0.7
	valveOnOff = 0
	numLossCoeff = 0
	bedFrictionType = Strickler
	bedFriction = 70

[Structure]
	type = culvert
	id = KDU-O-01170
	branchid = OAF-O-00146
	chainage = 121.083
	allowedFlowDir = both
	leftLevel = -3.12
	rightLevel = -3.18
	csDefId = KDU-O-01170
	length = 10.0
	inletLossCoeff = 0.7
	outletLossCoeff = 0.7
	valveOnOff = 0
	numLossCoeff = 0
	bedFrictionType = Strickler
	bedFriction = 70

[Structure]
	type = culvert
	id = KDU-O-01280
	branchid = OAF-O-00120
	chainage = 396.703
	allowedFlowDir = both
	leftLevel = -3.19
	rightLevel = -3.21
	csDefId = KDU-O-01280
	length = 12.0
	inletLossCoeff = 0.7
	outletLossCoeff = 0.7
	valveOnOff = 0
	numLossCoeff = 0
	bedFrictionType = Strickler
	bedFriction = 70

[Structure]
	type = culvert
	id = KDU-O-01304
	branchid = OAF-O-01222
	chainage = 16.552
	allowedFlowDir = both
	leftLevel = -2.57
	rightLevel = -2.67
	csDefId = KDU-O-01304
	length = 36.0
	inletLossCoeff = 0.7
	outletLossCoeff = 0.7
	valveOnOff = 0
	numLossCoeff = 0
	bedFrictionType = Strickler
	bedFriction = 70

[Structure]
	type = culvert
	id = KDU-O-01308
	branchid = OAF-O-00115
	chainage = 561.388
	allowedFlowDir = both
	leftLevel = -3.44
	rightLevel = -3.3000000000000003
	csDefId = KDU-O-01308
	length = 28.0
	inletLossCoeff = 0.7
	outletLossCoeff = 0.7
	valveOnOff = 0
	numLossCoeff = 0
	bedFrictionType = Strickler
	bedFriction = 70

[Structure]
	type = culvert
	id = KDU-O-01248
	branchid = OAF-O-00791
	chainage = 58.198
	allowedFlowDir = both
	leftLevel = -1.46
	rightLevel = -1.5499999999999998
	csDefId = KDU-O-01248
	length = 9.0
	inletLossCoeff = 0.7
	outletLossCoeff = 0.7
	valveOnOff = 0
	numLossCoeff = 0
	bedFrictionType = Strickler
	bedFriction = 70

[Structure]
	type = culvert
	id = KDU-O-01281
	branchid = OAF-O-00121
	chainage = 6.06
	allowedFlowDir = both
	leftLevel = -3.53
	rightLevel = -3.65
	csDefId = KDU-O-01281
	length = 8.0
	inletLossCoeff = 0.7
	outletLossCoeff = 0.7
	valveOnOff = 0
	numLossCoeff = 0
	bedFrictionType = Strickler
	bedFriction = 70

[Structure]
	type = culvert
	id = KDU-O-01288
	branchid = OAF-O-00124
	chainage = 474.654
	allowedFlowDir = both
	leftLevel = -2.71
	rightLevel = -2.88
	csDefId = KDU-O-01288
	length = 6.0
	inletLossCoeff = 0.7
	outletLossCoeff = 0.7
	valveOnOff = 0
	numLossCoeff = 0
	bedFrictionType = Strickler
	bedFriction = 70

[Structure]
	type = culvert
	id = KDU-O-01289
	branchid = OAF-O-00123
	chainage = 615.111
	allowedFlowDir = both
	leftLevel = -2.65
	rightLevel = -2.6
	csDefId = KDU-O-01289
	length = 10.0
	inletLossCoeff = 0.7
	outletLossCoeff = 0.7
	valveOnOff = 0
	numLossCoeff = 0
	bedFrictionType = Strickler
	bedFriction = 70

[Structure]
	type = culvert
	id = KDU-O-01292
	branchid = OAF-O-00126
	chainage = 334.063
	allowedFlowDir = both
	leftLevel = -3.84
	rightLevel = -3.9000000000000004
	csDefId = KDU-O-01292
	length = 8.0
	inletLossCoeff = 0.7
	outletLossCoeff = 0.7
	valveOnOff = 0
	numLossCoeff = 0
	bedFrictionType = Strickler
	bedFriction = 70

[Structure]
	type = culvert
	id = KDU-O-00347
	branchid = OAF-O-00950
	chainage = 443.292
	allowedFlowDir = both
	leftLevel = -3.37
	rightLevel = -3.57
	csDefId = KDU-O-00347
	length = 18.0
	inletLossCoeff = 0.7
	outletLossCoeff = 0.7
	valveOnOff = 0
	numLossCoeff = 0
	bedFrictionType = Strickler
	bedFriction = 70

[Structure]
	type = culvert
	id = KDU-O-00349
	branchid = OAF-O-00957
	chainage = 236.695
	allowedFlowDir = both
	leftLevel = -2.79
	rightLevel = -2.79
	csDefId = KDU-O-00349
	length = 17.0
	inletLossCoeff = 0.7
	outletLossCoeff = 0.7
	valveOnOff = 0
	numLossCoeff = 0
	bedFrictionType = Strickler
	bedFriction = 70

[Structure]
	type = culvert
	id = KDU-O-01296
	branchid = OAF-O-00118
	chainage = 261.606
	allowedFlowDir = both
	leftLevel = -3.76
	rightLevel = -3.45
	csDefId = KDU-O-01296
	length = 21.0
	inletLossCoeff = 0.7
	outletLossCoeff = 0.7
	valveOnOff = 0
	numLossCoeff = 0
	bedFrictionType = Strickler
	bedFriction = 70

[Structure]
	type = culvert
	id = KDU-O-01282
	branchid = OAF-O-00121
	chainage = 689.241
	allowedFlowDir = both
	leftLevel = -4.17
	rightLevel = -4.09
	csDefId = KDU-O-01282
	length = 17.0
	inletLossCoeff = 0.7
	outletLossCoeff = 0.7
	valveOnOff = 0
	numLossCoeff = 0
	bedFrictionType = Strickler
	bedFriction = 70

[Structure]
	type = culvert
	id = KDU-O-03159
	branchid = OAF-O-00157
	chainage = 70.471
	allowedFlowDir = both
	leftLevel = nan
	rightLevel = nan
	csDefId = KDU-O-03159
	length = 24.0
	inletLossCoeff = 0.7
	outletLossCoeff = 0.7
	valveOnOff = 0
	numLossCoeff = 0
	bedFrictionType = Strickler
	bedFriction = 70

[Structure]
	type = culvert
	id = KDU-O-01124
	branchid = OAF-O-00156
	chainage = 77.533
	allowedFlowDir = both
	leftLevel = nan
	rightLevel = nan
	csDefId = KDU-O-01124
	length = 5.0
	inletLossCoeff = 0.7
	outletLossCoeff = 0.7
	valveOnOff = 0
	numLossCoeff = 0
	bedFrictionType = Strickler
	bedFriction = 70

[Structure]
	type = culvert
	id = KDU-O-01122
	branchid = OAF-O-00156
	chainage = 0.382
	allowedFlowDir = both
	leftLevel = nan
	rightLevel = nan
	csDefId = KDU-O-01122
	length = 8.0
	inletLossCoeff = 0.7
	outletLossCoeff = 0.7
	valveOnOff = 0
	numLossCoeff = 0
	bedFrictionType = Strickler
	bedFriction = 70

[Structure]
	type = culvert
	id = KDU-O-01126
	branchid = OAF-O-00157
	chainage = 86.91969770973472
	allowedFlowDir = both
	leftLevel = nan
	rightLevel = nan
	csDefId = KDU-O-01126
	length = 6.0
	inletLossCoeff = 0.7
	outletLossCoeff = 0.7
	valveOnOff = 0
	numLossCoeff = 0
	bedFrictionType = Strickler
	bedFriction = 70

[Structure]
	type = culvert
	id = KDU-O-01112
	branchid = OAF-O-00153
	chainage = 4.935
	allowedFlowDir = both
	leftLevel = -4.23
	rightLevel = -4.24
	csDefId = KDU-O-01112
	length = 10.0
	inletLossCoeff = 0.7
	outletLossCoeff = 0.7
	valveOnOff = 0
	numLossCoeff = 0
	bedFrictionType = Strickler
	bedFriction = 70

[Structure]
	type = culvert
	id = KDU-O-00350
	branchid = OAF-O-00156
	chainage = 70.838
	allowedFlowDir = both
	leftLevel = -3.84
	rightLevel = -3.68
	csDefId = KDU-O-00350
	length = 20.0
	inletLossCoeff = 0.7
	outletLossCoeff = 0.7
	valveOnOff = 0
	numLossCoeff = 0
	bedFrictionType = Strickler
	bedFriction = 70

[Structure]
	type = culvert
	id = KDU-O-00351
	branchid = OAF-O-00157
	chainage = 72.115
	allowedFlowDir = both
	leftLevel = -3.5000000000000004
	rightLevel = -3.54
	csDefId = KDU-O-00351
	length = 23.0
	inletLossCoeff = 0.7
	outletLossCoeff = 0.7
	valveOnOff = 0
	numLossCoeff = 0
	bedFrictionType = Strickler
	bedFriction = 70

[Structure]
	type = culvert
	id = KDU-O-01172
	branchid = OAF-O-00959
	chainage = 8.583
	allowedFlowDir = both
	leftLevel = -2.76
	rightLevel = -2.64
	csDefId = KDU-O-01172
	length = 18.0
	inletLossCoeff = 0.7
	outletLossCoeff = 0.7
	valveOnOff = 0
	numLossCoeff = 0
	bedFrictionType = Strickler
	bedFriction = 70

[Structure]
	type = culvert
	id = KDU-O-01155
	branchid = OAF-O-00151
	chainage = 5.837
	allowedFlowDir = both
	leftLevel = -4.08
	rightLevel = -4.11
	csDefId = KDU-O-01155
	length = 11.65
	inletLossCoeff = 0.7
	outletLossCoeff = 0.7
	valveOnOff = 0
	numLossCoeff = 0
	bedFrictionType = Strickler
	bedFriction = 70

[Structure]
	type = culvert
	id = KDU-O-01171
	branchid = OAF-O-00957
	chainage = 206.193
	allowedFlowDir = both
	leftLevel = -2.79
	rightLevel = -2.95
	csDefId = KDU-O-01171
	length = 8.0
	inletLossCoeff = 0.7
	outletLossCoeff = 0.7
	valveOnOff = 0
	numLossCoeff = 0
	bedFrictionType = Strickler
	bedFriction = 70

[Structure]
	type = culvert
	id = KDU-O-01173
	branchid = OAF-O-00147
	chainage = 221.971
	allowedFlowDir = both
	leftLevel = -3.09
	rightLevel = -3.14
	csDefId = KDU-O-01173
	length = 10.0
	inletLossCoeff = 0.7
	outletLossCoeff = 0.7
	valveOnOff = 0
	numLossCoeff = 0
	bedFrictionType = Strickler
	bedFriction = 70

[Structure]
	type = culvert
	id = KDU-O-01176
	branchid = OAF-O-00149
	chainage = 95.473
	allowedFlowDir = both
	leftLevel = -3.06
	rightLevel = -3.16
	csDefId = KDU-O-01176
	length = 13.0
	inletLossCoeff = 0.7
	outletLossCoeff = 0.7
	valveOnOff = 0
	numLossCoeff = 0
	bedFrictionType = Strickler
	bedFriction = 70

[Structure]
	type = culvert
	id = KDU-O-01177
	branchid = OAF-O-00149
	chainage = 244.857
	allowedFlowDir = both
	leftLevel = -3.13
	rightLevel = -3.08
	csDefId = KDU-O-01177
	length = 10.0
	inletLossCoeff = 0.7
	outletLossCoeff = 0.7
	valveOnOff = 0
	numLossCoeff = 0
	bedFrictionType = Strickler
	bedFriction = 70

[Structure]
	type = culvert
	id = KDU-O-01174
	branchid = OAF-O-00960
	chainage = 126.811
	allowedFlowDir = both
	leftLevel = -3.09
	rightLevel = -3.07
	csDefId = KDU-O-01174
	length = 20.0
	inletLossCoeff = 0.7
	outletLossCoeff = 0.7
	valveOnOff = 0
	numLossCoeff = 0
	bedFrictionType = Strickler
	bedFriction = 70

[Structure]
	type = culvert
	id = KDU-O-01369
	branchid = OAF-O-00055
	chainage = 83.667
	allowedFlowDir = both
	leftLevel = nan
	rightLevel = nan
	csDefId = KDU-O-01369
	length = 5.0
	inletLossCoeff = 0.7
	outletLossCoeff = 0.7
	valveOnOff = 0
	numLossCoeff = 0
	bedFrictionType = Strickler
	bedFriction = 70

[Structure]
	type = culvert
	id = KDU-O-01363
	branchid = OAF-O-00061
	chainage = 0.1
	allowedFlowDir = both
	leftLevel = nan
	rightLevel = nan
	csDefId = KDU-O-01363
	length = 8.0
	inletLossCoeff = 0.7
	outletLossCoeff = 0.7
	valveOnOff = 0
	numLossCoeff = 0
	bedFrictionType = Strickler
	bedFriction = 70

[Structure]
	type = culvert
	id = KDU-O-01370
	branchid = OAF-O-00055
	chainage = 164.841
	allowedFlowDir = both
	leftLevel = nan
	rightLevel = nan
	csDefId = KDU-O-01370
	length = 5.0
	inletLossCoeff = 0.7
	outletLossCoeff = 0.7
	valveOnOff = 0
	numLossCoeff = 0
	bedFrictionType = Strickler
	bedFriction = 70

[Structure]
	type = culvert
	id = KDU-O-01353
	branchid = OAF-O-00059
	chainage = 519.187
	allowedFlowDir = both
	leftLevel = nan
	rightLevel = nan
	csDefId = KDU-O-01353
	length = 7.0
	inletLossCoeff = 0.7
	outletLossCoeff = 0.7
	valveOnOff = 0
	numLossCoeff = 0
	bedFrictionType = Strickler
	bedFriction = 70

[Structure]
	type = culvert
	id = KDU-O-00140
	branchid = OAF-O-00059
	chainage = 317.606
	allowedFlowDir = both
	leftLevel = -1.39
	rightLevel = -1.38
	csDefId = KDU-O-00140
	length = 21.0
	inletLossCoeff = 0.7
	outletLossCoeff = 0.7
	valveOnOff = 0
	numLossCoeff = 0
	bedFrictionType = Strickler
	bedFriction = 70

[Structure]
	type = culvert
	id = KDU-O-00546
	branchid = OAF-O-02383
	chainage = 45.06
	allowedFlowDir = both
	leftLevel = -1.97
	rightLevel = -2.0
	csDefId = KDU-O-00546
	length = 90.12
	inletLossCoeff = 0.7
	outletLossCoeff = 0.7
	valveOnOff = 0
	numLossCoeff = 0
	bedFrictionType = Strickler
	bedFriction = 70

[Structure]
	type = culvert
	id = KDU-O-01576
	branchid = OAF-O-00054
	chainage = 32.684
	allowedFlowDir = both
	leftLevel = -2.05
	rightLevel = -2.01
	csDefId = KDU-O-01576
	length = 20.0
	inletLossCoeff = 0.7
	outletLossCoeff = 0.7
	valveOnOff = 0
	numLossCoeff = 0
	bedFrictionType = Strickler
	bedFriction = 70

[Structure]
	type = culvert
	id = KDU-O-01351
	branchid = OAF-O-00059
	chainage = 202.42
	allowedFlowDir = both
	leftLevel = -1.2
	rightLevel = -1.21
	csDefId = KDU-O-01351
	length = 14.0
	inletLossCoeff = 0.7
	outletLossCoeff = 0.7
	valveOnOff = 0
	numLossCoeff = 0
	bedFrictionType = Strickler
	bedFriction = 70

[Structure]
	type = culvert
	id = KDU-O-01354
	branchid = OAF-O-00059
	chainage = 532.454
	allowedFlowDir = both
	leftLevel = -1.69
	rightLevel = -1.62
	csDefId = KDU-O-01354
	length = 14.0
	inletLossCoeff = 0.7
	outletLossCoeff = 0.7
	valveOnOff = 0
	numLossCoeff = 0
	bedFrictionType = Strickler
	bedFriction = 70

[Structure]
	type = culvert
	id = KDU-O-01355
	branchid = OAF-O-00059
	chainage = 949.228
	allowedFlowDir = both
	leftLevel = -1.81
	rightLevel = -1.66
	csDefId = KDU-O-01355
	length = 14.0
	inletLossCoeff = 0.7
	outletLossCoeff = 0.7
	valveOnOff = 0
	numLossCoeff = 0
	bedFrictionType = Strickler
	bedFriction = 70

[Structure]
	type = culvert
	id = KDU-O-01365
	branchid = OAF-O-00061
	chainage = 446.057
	allowedFlowDir = both
	leftLevel = -1.54
	rightLevel = -1.69
	csDefId = KDU-O-01365
	length = 15.0
	inletLossCoeff = 0.7
	outletLossCoeff = 0.7
	valveOnOff = 0
	numLossCoeff = 0
	bedFrictionType = Strickler
	bedFriction = 70

[Structure]
	type = culvert
	id = KDU-O-01356
	branchid = OAF-O-00059
	chainage = 1021.251
	allowedFlowDir = both
	leftLevel = -1.68
	rightLevel = -1.5
	csDefId = KDU-O-01356
	length = 15.0
	inletLossCoeff = 0.7
	outletLossCoeff = 0.7
	valveOnOff = 0
	numLossCoeff = 0
	bedFrictionType = Strickler
	bedFriction = 70

[Structure]
	type = culvert
	id = KDU-O-01357
	branchid = OAF-O-00059
	chainage = 1072.161
	allowedFlowDir = both
	leftLevel = -1.69
	rightLevel = -1.67
	csDefId = KDU-O-01357
	length = 12.5
	inletLossCoeff = 0.7
	outletLossCoeff = 0.7
	valveOnOff = 0
	numLossCoeff = 0
	bedFrictionType = Strickler
	bedFriction = 70

[Structure]
	type = culvert
	id = KDU-O-01367
	branchid = OAF-O-00055
	chainage = 170.541
	allowedFlowDir = both
	leftLevel = -1.89
	rightLevel = -1.9
	csDefId = KDU-O-01367
	length = 9.95
	inletLossCoeff = 0.7
	outletLossCoeff = 0.7
	valveOnOff = 0
	numLossCoeff = 0
	bedFrictionType = Strickler
	bedFriction = 70

[Structure]
	type = culvert
	id = KDU-O-00549
	branchid = OAF-O-02383
	chainage = 68.261
	allowedFlowDir = both
	leftLevel = -0.91
	rightLevel = -0.88
	csDefId = KDU-O-00549
	length = 5.5
	inletLossCoeff = 0.7
	outletLossCoeff = 0.7
	valveOnOff = 0
	numLossCoeff = 0
	bedFrictionType = Strickler
	bedFriction = 70

[Structure]
	type = culvert
	id = KDU-O-01557
	branchid = OAF-O-00106
	chainage = 3.483
	allowedFlowDir = both
	leftLevel = nan
	rightLevel = nan
	csDefId = KDU-O-01557
	length = 7.0
	inletLossCoeff = 0.7
	outletLossCoeff = 0.7
	valveOnOff = 0
	numLossCoeff = 0
	bedFrictionType = Strickler
	bedFriction = 70

[Structure]
	type = culvert
	id = KDU-O-01544
	branchid = OAF-O-00104
	chainage = 6.0
	allowedFlowDir = both
	leftLevel = -1.83
	rightLevel = -1.93
	csDefId = KDU-O-01544
	length = 12.0
	inletLossCoeff = 0.7
	outletLossCoeff = 0.7
	valveOnOff = 0
	numLossCoeff = 0
	bedFrictionType = Strickler
	bedFriction = 70

[Structure]
	type = culvert
	id = KDU-O-01558
	branchid = OAF-O-00104
	chainage = 461.72
	allowedFlowDir = both
	leftLevel = nan
	rightLevel = nan
	csDefId = KDU-O-01558
	length = 6.0
	inletLossCoeff = 0.7
	outletLossCoeff = 0.7
	valveOnOff = 0
	numLossCoeff = 0
	bedFrictionType = Strickler
	bedFriction = 70

[Structure]
	type = culvert
	id = KDU-O-01545
	branchid = OAF-O-00104
	chainage = 247.405
	allowedFlowDir = both
	leftLevel = -2.28
	rightLevel = -2.32
	csDefId = KDU-O-01545
	length = 8.0
	inletLossCoeff = 0.7
	outletLossCoeff = 0.7
	valveOnOff = 0
	numLossCoeff = 0
	bedFrictionType = Strickler
	bedFriction = 70

[Structure]
	type = culvert
	id = KDU-O-01546
	branchid = OAF-O-00104
	chainage = 259.415
	allowedFlowDir = both
	leftLevel = -2.07
	rightLevel = -2.28
	csDefId = KDU-O-01546
	length = 13.0
	inletLossCoeff = 0.7
	outletLossCoeff = 0.7
	valveOnOff = 0
	numLossCoeff = 0
	bedFrictionType = Strickler
	bedFriction = 70

[Structure]
	type = culvert
	id = KDU-O-01547
	branchid = OAF-O-00104
	chainage = 352.487
	allowedFlowDir = both
	leftLevel = -2.31
	rightLevel = -2.27
	csDefId = KDU-O-01547
	length = 8.0
	inletLossCoeff = 0.7
	outletLossCoeff = 0.7
	valveOnOff = 0
	numLossCoeff = 0
	bedFrictionType = Strickler
	bedFriction = 70

[Structure]
	type = culvert
	id = KDU-O-01559
	branchid = OAF-O-00104
	chainage = 470.99
	allowedFlowDir = both
	leftLevel = -2.3000000000000003
	rightLevel = -2.39
	csDefId = KDU-O-01559
	length = 16.0
	inletLossCoeff = 0.7
	outletLossCoeff = 0.7
	valveOnOff = 0
	numLossCoeff = 0
	bedFrictionType = Strickler
	bedFriction = 70

[Structure]
	type = culvert
	id = KDU-O-01489
	branchid = OAF-O-01042
	chainage = 4.983
	allowedFlowDir = both
	leftLevel = -1.57
	rightLevel = -1.62
	csDefId = KDU-O-01489
	length = 8.0
	inletLossCoeff = 0.7
	outletLossCoeff = 0.7
	valveOnOff = 0
	numLossCoeff = 0
	bedFrictionType = Strickler
	bedFriction = 70

[Structure]
	type = culvert
	id = KDU-O-01484
	branchid = OAF-O-00080
	chainage = 246.481
	allowedFlowDir = both
	leftLevel = -0.71
	rightLevel = -1.0
	csDefId = KDU-O-01484
	length = 10.0
	inletLossCoeff = 0.7
	outletLossCoeff = 0.7
	valveOnOff = 0
	numLossCoeff = 0
	bedFrictionType = Strickler
	bedFriction = 70

[Structure]
	type = culvert
	id = KDU-O-01486
	branchid = OAF-O-01042
	chainage = 115.427
	allowedFlowDir = both
	leftLevel = nan
	rightLevel = nan
	csDefId = KDU-O-01486
	length = 4.0
	inletLossCoeff = 0.7
	outletLossCoeff = 0.7
	valveOnOff = 0
	numLossCoeff = 0
	bedFrictionType = Strickler
	bedFriction = 70

[Structure]
	type = culvert
	id = KDU-O-01483
	branchid = OAF-O-00080
	chainage = 201.491
	allowedFlowDir = both
	leftLevel = -0.66
	rightLevel = -0.73
	csDefId = KDU-O-01483
	length = 7.0
	inletLossCoeff = 0.7
	outletLossCoeff = 0.7
	valveOnOff = 0
	numLossCoeff = 0
	bedFrictionType = Strickler
	bedFriction = 70

[Structure]
	type = culvert
	id = KDU-O-01488
	branchid = OAF-O-01042
	chainage = 46.971
	allowedFlowDir = both
	leftLevel = nan
	rightLevel = nan
	csDefId = KDU-O-01488
	length = 5.0
	inletLossCoeff = 0.7
	outletLossCoeff = 0.7
	valveOnOff = 0
	numLossCoeff = 0
	bedFrictionType = Strickler
	bedFriction = 70

[Structure]
	type = culvert
	id = KDU-O-01482
	branchid = OAF-O-00080
	chainage = 158.711
	allowedFlowDir = both
	leftLevel = nan
	rightLevel = nan
	csDefId = KDU-O-01482
	length = 4.0
	inletLossCoeff = 0.7
	outletLossCoeff = 0.7
	valveOnOff = 0
	numLossCoeff = 0
	bedFrictionType = Strickler
	bedFriction = 70

[Structure]
	type = culvert
	id = KDU-O-01487
	branchid = OAF-O-01042
	chainage = 41.551
	allowedFlowDir = both
	leftLevel = -1.62
	rightLevel = -1.58
	csDefId = KDU-O-01487
	length = 10.0
	inletLossCoeff = 0.7
	outletLossCoeff = 0.7
	valveOnOff = 0
	numLossCoeff = 0
	bedFrictionType = Strickler
	bedFriction = 70

[Structure]
	type = culvert
	id = KDU-O-01492
	branchid = OAF-O-00081
	chainage = 30.192
	allowedFlowDir = both
	leftLevel = -2.17
	rightLevel = -2.19
	csDefId = KDU-O-01492
	length = 10.0
	inletLossCoeff = 0.7
	outletLossCoeff = 0.7
	valveOnOff = 0
	numLossCoeff = 0
	bedFrictionType = Strickler
	bedFriction = 70

[Structure]
	type = culvert
	id = KDU-O-00727
	branchid = OAF-O-00782
	chainage = 202.999
	allowedFlowDir = both
	leftLevel = -4.96
	rightLevel = -4.81
	csDefId = KDU-O-00727
	length = 12.0
	inletLossCoeff = 0.7
	outletLossCoeff = 0.7
	valveOnOff = 0
	numLossCoeff = 0
	bedFrictionType = Strickler
	bedFriction = 70

[Structure]
	type = culvert
	id = KDU-O-00729
	branchid = OAF-O-00143
	chainage = 14.12
	allowedFlowDir = both
	leftLevel = -4.52
	rightLevel = -4.54
	csDefId = KDU-O-00729
	length = 10.0
	inletLossCoeff = 0.7
	outletLossCoeff = 0.7
	valveOnOff = 0
	numLossCoeff = 0
	bedFrictionType = Strickler
	bedFriction = 70

[Structure]
	type = culvert
	id = KDU-O-02468
	branchid = OAF-O-00143
	chainage = 549.029
	allowedFlowDir = both
	leftLevel = -4.9
	rightLevel = -4.81
	csDefId = KDU-O-02468
	length = 9.0
	inletLossCoeff = 0.7
	outletLossCoeff = 0.7
	valveOnOff = 0
	numLossCoeff = 0
	bedFrictionType = Strickler
	bedFriction = 70

[Structure]
	type = culvert
	id = KDU-O-01129
	branchid = OAF-O-00159
	chainage = 906.146
	allowedFlowDir = both
	leftLevel = -4.16
	rightLevel = -4.66
	csDefId = KDU-O-01129
	length = 18.0
	inletLossCoeff = 0.7
	outletLossCoeff = 0.7
	valveOnOff = 0
	numLossCoeff = 0
	bedFrictionType = Strickler
	bedFriction = 70

[Structure]
	type = culvert
	id = KDU-O-00728
	branchid = OAF-O-02415
	chainage = 3.451
	allowedFlowDir = both
	leftLevel = -3.64
	rightLevel = -3.66
	csDefId = KDU-O-00728
	length = 6.9
	inletLossCoeff = 0.7
	outletLossCoeff = 0.7
	valveOnOff = 0
	numLossCoeff = 0
	bedFrictionType = Strickler
	bedFriction = 70

[Structure]
	type = culvert
	id = KDU-O-00142
	branchid = OAF-O-00144
	chainage = 527.508
	allowedFlowDir = both
	leftLevel = nan
	rightLevel = nan
	csDefId = KDU-O-00142
	length = 20.0
	inletLossCoeff = 0.7
	outletLossCoeff = 0.7
	valveOnOff = 0
	numLossCoeff = 0
	bedFrictionType = Strickler
	bedFriction = 70

[Structure]
	type = culvert
	id = KDU-O-03992
	branchid = OAF-O-02480
	chainage = 11.89980909607292
	allowedFlowDir = both
	leftLevel = nan
	rightLevel = nan
	csDefId = KDU-O-03992
	length = 20.0
	inletLossCoeff = 0.7
	outletLossCoeff = 0.7
	valveOnOff = 0
	numLossCoeff = 0
	bedFrictionType = Strickler
	bedFriction = 70

[Structure]
	type = culvert
	id = KDU-O-01151
	branchid = OAF-O-00140
	chainage = 4.526
	allowedFlowDir = both
	leftLevel = -3.86
	rightLevel = -3.89
	csDefId = KDU-O-01151
	length = 7.0
	inletLossCoeff = 0.7
	outletLossCoeff = 0.7
	valveOnOff = 0
	numLossCoeff = 0
	bedFrictionType = Strickler
	bedFriction = 70

[Structure]
	type = culvert
	id = KDU-O-01180
	branchid = OAF-O-00137
	chainage = 0.1
	allowedFlowDir = both
	leftLevel = -3.23
	rightLevel = -3.29
	csDefId = KDU-O-01180
	length = 8.0
	inletLossCoeff = 0.7
	outletLossCoeff = 0.7
	valveOnOff = 0
	numLossCoeff = 0
	bedFrictionType = Strickler
	bedFriction = 70

[Structure]
	type = culvert
	id = KDU-O-01148
	branchid = OAF-O-00141
	chainage = 476.354
	allowedFlowDir = both
	leftLevel = nan
	rightLevel = nan
	csDefId = KDU-O-01148
	length = 7.0
	inletLossCoeff = 0.7
	outletLossCoeff = 0.7
	valveOnOff = 0
	numLossCoeff = 0
	bedFrictionType = Strickler
	bedFriction = 70

[Structure]
	type = culvert
	id = KDU-O-03990
	branchid = OAF-O-02479
	chainage = 11.899885760144961
	allowedFlowDir = both
	leftLevel = nan
	rightLevel = nan
	csDefId = KDU-O-03990
	length = 20.0
	inletLossCoeff = 0.7
	outletLossCoeff = 0.7
	valveOnOff = 0
	numLossCoeff = 0
	bedFrictionType = Strickler
	bedFriction = 70

[Structure]
	type = culvert
	id = KDU-O-01127
	branchid = OAF-O-00158
	chainage = 448.636
	allowedFlowDir = both
	leftLevel = -3.61
	rightLevel = -3.46
	csDefId = KDU-O-01127
	length = 16.0
	inletLossCoeff = 0.7
	outletLossCoeff = 0.7
	valveOnOff = 0
	numLossCoeff = 0
	bedFrictionType = Strickler
	bedFriction = 70

[Structure]
	type = culvert
	id = KDU-O-01140
	branchid = OAF-O-00151
	chainage = 544.606
	allowedFlowDir = both
	leftLevel = -4.98
	rightLevel = -4.78
	csDefId = KDU-O-01140
	length = 13.0
	inletLossCoeff = 0.7
	outletLossCoeff = 0.7
	valveOnOff = 0
	numLossCoeff = 0
	bedFrictionType = Strickler
	bedFriction = 70

[Structure]
	type = culvert
	id = KDU-O-01141
	branchid = OAF-O-00166
	chainage = 869.07
	allowedFlowDir = both
	leftLevel = -4.94
	rightLevel = -4.95
	csDefId = KDU-O-01141
	length = 7.0
	inletLossCoeff = 0.7
	outletLossCoeff = 0.7
	valveOnOff = 0
	numLossCoeff = 0
	bedFrictionType = Strickler
	bedFriction = 70

[Structure]
	type = culvert
	id = KDU-O-01153
	branchid = OAF-O-00132
	chainage = 823.917
	allowedFlowDir = both
	leftLevel = -4.57
	rightLevel = -4.12
	csDefId = KDU-O-01153
	length = 11.0
	inletLossCoeff = 0.7
	outletLossCoeff = 0.7
	valveOnOff = 0
	numLossCoeff = 0
	bedFrictionType = Strickler
	bedFriction = 70

[Structure]
	type = culvert
	id = KDU-O-01187
	branchid = OAF-O-00138
	chainage = 414.137
	allowedFlowDir = both
	leftLevel = -3.75
	rightLevel = -3.69
	csDefId = KDU-O-01187
	length = 10.0
	inletLossCoeff = 0.7
	outletLossCoeff = 0.7
	valveOnOff = 0
	numLossCoeff = 0
	bedFrictionType = Strickler
	bedFriction = 70

[Structure]
	type = culvert
	id = KDU-O-01143
	branchid = OAF-O-00144
	chainage = 536.743
	allowedFlowDir = both
	leftLevel = -4.6000000000000005
	rightLevel = -4.64
	csDefId = KDU-O-01143
	length = 23.0
	inletLossCoeff = 0.7
	outletLossCoeff = 0.7
	valveOnOff = 0
	numLossCoeff = 0
	bedFrictionType = Strickler
	bedFriction = 70

[Structure]
	type = culvert
	id = KDU-O-01149
	branchid = OAF-O-00140
	chainage = 180.51
	allowedFlowDir = both
	leftLevel = -3.96
	rightLevel = -3.95
	csDefId = KDU-O-01149
	length = 10.0
	inletLossCoeff = 0.7
	outletLossCoeff = 0.7
	valveOnOff = 0
	numLossCoeff = 0
	bedFrictionType = Strickler
	bedFriction = 70

[Structure]
	type = culvert
	id = KDU-O-01152
	branchid = OAF-O-00901
	chainage = 234.546
	allowedFlowDir = both
	leftLevel = -3.4
	rightLevel = -3.43
	csDefId = KDU-O-01152
	length = 8.0
	inletLossCoeff = 0.7
	outletLossCoeff = 0.7
	valveOnOff = 0
	numLossCoeff = 0
	bedFrictionType = Strickler
	bedFriction = 70

[Structure]
	type = culvert
	id = KDU-O-01193
	branchid = OAF-O-00138
	chainage = 97.165
	allowedFlowDir = both
	leftLevel = -3.93
	rightLevel = -3.77
	csDefId = KDU-O-01193
	length = 10.0
	inletLossCoeff = 0.7
	outletLossCoeff = 0.7
	valveOnOff = 0
	numLossCoeff = 0
	bedFrictionType = Strickler
	bedFriction = 70

[Structure]
	type = culvert
	id = KDU-O-01138
	branchid = OAF-O-00164
	chainage = 127.572
	allowedFlowDir = both
	leftLevel = -4.52
	rightLevel = -4.51
	csDefId = KDU-O-01138
	length = 14.0
	inletLossCoeff = 0.7
	outletLossCoeff = 0.7
	valveOnOff = 0
	numLossCoeff = 0
	bedFrictionType = Strickler
	bedFriction = 70

[Structure]
	type = culvert
	id = KDU-O-02469
	branchid = OAF-O-00155
	chainage = 20.952
	allowedFlowDir = both
	leftLevel = -3.93
	rightLevel = -3.9000000000000004
	csDefId = KDU-O-02469
	length = 6.0
	inletLossCoeff = 0.7
	outletLossCoeff = 0.7
	valveOnOff = 0
	numLossCoeff = 0
	bedFrictionType = Strickler
	bedFriction = 70

[Structure]
	type = culvert
	id = KDU-O-01562
	branchid = OAF-O-00128
	chainage = 25.519
	allowedFlowDir = both
	leftLevel = -4.33
	rightLevel = -4.24
	csDefId = KDU-O-01562
	length = 24.0
	inletLossCoeff = 0.7
	outletLossCoeff = 0.7
	valveOnOff = 0
	numLossCoeff = 0
	bedFrictionType = Strickler
	bedFriction = 70

[Structure]
	type = culvert
	id = KDU-O-02446
	branchid = OAF-O-02370
	chainage = 14.239
	allowedFlowDir = both
	leftLevel = -3.69
	rightLevel = -3.69
	csDefId = KDU-O-02446
	length = 25.0
	inletLossCoeff = 0.7
	outletLossCoeff = 0.7
	valveOnOff = 0
	numLossCoeff = 0
	bedFrictionType = Strickler
	bedFriction = 70

[Structure]
	type = culvert
	id = KDU-O-02447
	branchid = OAF-O-02369
	chainage = 14.607
	allowedFlowDir = both
	leftLevel = -3.85
	rightLevel = -3.85
	csDefId = KDU-O-02447
	length = 25.0
	inletLossCoeff = 0.7
	outletLossCoeff = 0.7
	valveOnOff = 0
	numLossCoeff = 0
	bedFrictionType = Strickler
	bedFriction = 70

[Structure]
	type = culvert
	id = KDU-O-01609
	branchid = OAF-O-00141
	chainage = 484.521
	allowedFlowDir = both
	leftLevel = -4.49
	rightLevel = -4.45
	csDefId = KDU-O-01609
	length = 20.0
	inletLossCoeff = 0.7
	outletLossCoeff = 0.7
	valveOnOff = 0
	numLossCoeff = 0
	bedFrictionType = Strickler
	bedFriction = 70

[Structure]
	type = culvert
	id = KDU-O-01114
	branchid = OAF-O-00996
	chainage = 776.232
	allowedFlowDir = both
	leftLevel = -4.37
	rightLevel = -4.42
	csDefId = KDU-O-01114
	length = 18.0
	inletLossCoeff = 0.7
	outletLossCoeff = 0.7
	valveOnOff = 0
	numLossCoeff = 0
	bedFrictionType = Strickler
	bedFriction = 70

[Structure]
	type = culvert
	id = KDU-O-01182
	branchid = OAF-O-00139
	chainage = 9.607
	allowedFlowDir = both
	leftLevel = -3.79
	rightLevel = -3.75
	csDefId = KDU-O-01182
	length = 16.0
	inletLossCoeff = 0.7
	outletLossCoeff = 0.7
	valveOnOff = 0
	numLossCoeff = 0
	bedFrictionType = Strickler
	bedFriction = 70

[Structure]
	type = culvert
	id = KDU-O-01570
	branchid = OAF-O-00898
	chainage = 371.856
	allowedFlowDir = both
	leftLevel = -2.4
	rightLevel = -2.44
	csDefId = KDU-O-01570
	length = 8.0
	inletLossCoeff = 0.7
	outletLossCoeff = 0.7
	valveOnOff = 0
	numLossCoeff = 0
	bedFrictionType = Strickler
	bedFriction = 70

[Structure]
	type = culvert
	id = KDU-O-01530
	branchid = OAF-O-00101
	chainage = 374.668
	allowedFlowDir = both
	leftLevel = nan
	rightLevel = nan
	csDefId = KDU-O-01530
	length = 7.0
	inletLossCoeff = 0.7
	outletLossCoeff = 0.7
	valveOnOff = 0
	numLossCoeff = 0
	bedFrictionType = Strickler
	bedFriction = 70

[Structure]
	type = culvert
	id = KDU-O-01533
	branchid = OAF-O-00102
	chainage = 152.211
	allowedFlowDir = both
	leftLevel = -1.98
	rightLevel = -1.92
	csDefId = KDU-O-01533
	length = 11.0
	inletLossCoeff = 0.7
	outletLossCoeff = 0.7
	valveOnOff = 0
	numLossCoeff = 0
	bedFrictionType = Strickler
	bedFriction = 70

[Structure]
	type = culvert
	id = KDU-O-01600
	branchid = OAF-O-00101
	chainage = 112.133
	allowedFlowDir = both
	leftLevel = nan
	rightLevel = nan
	csDefId = KDU-O-01600
	length = 5.0
	inletLossCoeff = 0.7
	outletLossCoeff = 0.7
	valveOnOff = 0
	numLossCoeff = 0
	bedFrictionType = Strickler
	bedFriction = 70

[Structure]
	type = culvert
	id = KDU-O-03600
	branchid = OAF-O-00102
	chainage = 221.833
	allowedFlowDir = both
	leftLevel = -1.9500000000000002
	rightLevel = -1.97
	csDefId = KDU-O-03600
	length = 14.0
	inletLossCoeff = 0.7
	outletLossCoeff = 0.7
	valveOnOff = 0
	numLossCoeff = 0
	bedFrictionType = Strickler
	bedFriction = 70

[Structure]
	type = culvert
	id = KDU-O-01532
	branchid = OAF-O-00101
	chainage = 268.0
	allowedFlowDir = both
	leftLevel = -1.8
	rightLevel = -1.82
	csDefId = KDU-O-01532
	length = 9.0
	inletLossCoeff = 0.7
	outletLossCoeff = 0.7
	valveOnOff = 0
	numLossCoeff = 0
	bedFrictionType = Strickler
	bedFriction = 70

[Structure]
	type = culvert
	id = KDU-O-01531
	branchid = OAF-O-00101
	chainage = 503.36
	allowedFlowDir = both
	leftLevel = -1.93
	rightLevel = -1.93
	csDefId = KDU-O-01531
	length = 11.0
	inletLossCoeff = 0.7
	outletLossCoeff = 0.7
	valveOnOff = 0
	numLossCoeff = 0
	bedFrictionType = Strickler
	bedFriction = 70

[Structure]
	type = culvert
	id = KDU-O-01457
	branchid = OAF-O-00081
	chainage = 392.479
	allowedFlowDir = both
	leftLevel = nan
	rightLevel = nan
	csDefId = KDU-O-01457
	length = 6.0
	inletLossCoeff = 0.7
	outletLossCoeff = 0.7
	valveOnOff = 0
	numLossCoeff = 0
	bedFrictionType = Strickler
	bedFriction = 70

[Structure]
	type = culvert
	id = KDU-O-01523
	branchid = OAF-O-00098
	chainage = 334.938
	allowedFlowDir = both
	leftLevel = nan
	rightLevel = nan
	csDefId = KDU-O-01523
	length = 12.0
	inletLossCoeff = 0.7
	outletLossCoeff = 0.7
	valveOnOff = 0
	numLossCoeff = 0
	bedFrictionType = Strickler
	bedFriction = 70

[Structure]
	type = culvert
	id = KDU-O-01517
	branchid = OAF-O-00095
	chainage = 144.86
	allowedFlowDir = both
	leftLevel = -2.56
	rightLevel = -2.49
	csDefId = KDU-O-01517
	length = 14.86
	inletLossCoeff = 0.7
	outletLossCoeff = 0.7
	valveOnOff = 0
	numLossCoeff = 0
	bedFrictionType = Strickler
	bedFriction = 70

[Structure]
	type = culvert
	id = KDU-O-01481
	branchid = OAF-O-00080
	chainage = 79.6
	allowedFlowDir = both
	leftLevel = nan
	rightLevel = nan
	csDefId = KDU-O-01481
	length = 4.0
	inletLossCoeff = 0.7
	outletLossCoeff = 0.7
	valveOnOff = 0
	numLossCoeff = 0
	bedFrictionType = Strickler
	bedFriction = 70

[Structure]
	type = culvert
	id = KDU-O-01434
	branchid = OAF-O-01043
	chainage = 168.65
	allowedFlowDir = both
	leftLevel = nan
	rightLevel = nan
	csDefId = KDU-O-01434
	length = 5.0
	inletLossCoeff = 0.7
	outletLossCoeff = 0.7
	valveOnOff = 0
	numLossCoeff = 0
	bedFrictionType = Strickler
	bedFriction = 70

[Structure]
	type = culvert
	id = KDU-O-01565
	branchid = OAF-O-00002
	chainage = 0.36
	allowedFlowDir = both
	leftLevel = nan
	rightLevel = nan
	csDefId = KDU-O-01565
	length = 7.0
	inletLossCoeff = 0.7
	outletLossCoeff = 0.7
	valveOnOff = 0
	numLossCoeff = 0
	bedFrictionType = Strickler
	bedFriction = 70

[Structure]
	type = culvert
	id = KDU-O-01539
	branchid = OAF-O-00103
	chainage = 374.515
	allowedFlowDir = both
	leftLevel = -3.19
	rightLevel = -3.26
	csDefId = KDU-O-01539
	length = 8.0
	inletLossCoeff = 0.7
	outletLossCoeff = 0.7
	valveOnOff = 0
	numLossCoeff = 0
	bedFrictionType = Strickler
	bedFriction = 70

[Structure]
	type = culvert
	id = KDU-O-01552
	branchid = OAF-O-00107
	chainage = 686.91
	allowedFlowDir = both
	leftLevel = -4.17
	rightLevel = -4.25
	csDefId = KDU-O-01552
	length = 8.0
	inletLossCoeff = 0.7
	outletLossCoeff = 0.7
	valveOnOff = 0
	numLossCoeff = 0
	bedFrictionType = Strickler
	bedFriction = 70

[Structure]
	type = culvert
	id = KDU-O-01451
	branchid = OAF-O-00078
	chainage = 300.442
	allowedFlowDir = both
	leftLevel = -3.85
	rightLevel = -3.83
	csDefId = KDU-O-01451
	length = 10.0
	inletLossCoeff = 0.7
	outletLossCoeff = 0.7
	valveOnOff = 0
	numLossCoeff = 0
	bedFrictionType = Strickler
	bedFriction = 70

[Structure]
	type = culvert
	id = KDU-O-01455
	branchid = OAF-O-00081
	chainage = 818.007
	allowedFlowDir = both
	leftLevel = -2.52
	rightLevel = -2.49
	csDefId = KDU-O-01455
	length = 10.0
	inletLossCoeff = 0.7
	outletLossCoeff = 0.7
	valveOnOff = 0
	numLossCoeff = 0
	bedFrictionType = Strickler
	bedFriction = 70

[Structure]
	type = culvert
	id = KDU-O-01510
	branchid = OAF-O-00092
	chainage = 491.815
	allowedFlowDir = both
	leftLevel = -3.89
	rightLevel = -3.75
	csDefId = KDU-O-01510
	length = 12.0
	inletLossCoeff = 0.7
	outletLossCoeff = 0.7
	valveOnOff = 0
	numLossCoeff = 0
	bedFrictionType = Strickler
	bedFriction = 70

[Structure]
	type = culvert
	id = KDU-O-01521
	branchid = OAF-O-00096
	chainage = 307.444
	allowedFlowDir = both
	leftLevel = -4.34
	rightLevel = -4.3
	csDefId = KDU-O-01521
	length = 10.0
	inletLossCoeff = 0.7
	outletLossCoeff = 0.7
	valveOnOff = 0
	numLossCoeff = 0
	bedFrictionType = Strickler
	bedFriction = 70

[Structure]
	type = culvert
	id = KDU-O-01479
	branchid = OAF-O-00002
	chainage = 67.822
	allowedFlowDir = both
	leftLevel = -0.45
	rightLevel = -0.45
	csDefId = KDU-O-01479
	length = 8.0
	inletLossCoeff = 0.7
	outletLossCoeff = 0.7
	valveOnOff = 0
	numLossCoeff = 0
	bedFrictionType = Strickler
	bedFriction = 70

[Structure]
	type = culvert
	id = KDU-O-01452
	branchid = OAF-O-00084
	chainage = 5.179
	allowedFlowDir = both
	leftLevel = -3.57
	rightLevel = -3.61
	csDefId = KDU-O-01452
	length = 9.7
	inletLossCoeff = 0.7
	outletLossCoeff = 0.7
	valveOnOff = 0
	numLossCoeff = 0
	bedFrictionType = Strickler
	bedFriction = 70

[Structure]
	type = culvert
	id = KDU-O-01456
	branchid = OAF-O-00081
	chainage = 834.229
	allowedFlowDir = both
	leftLevel = -2.56
	rightLevel = -2.6
	csDefId = KDU-O-01456
	length = 10.0
	inletLossCoeff = 0.7
	outletLossCoeff = 0.7
	valveOnOff = 0
	numLossCoeff = 0
	bedFrictionType = Strickler
	bedFriction = 70

[Structure]
	type = culvert
	id = KDU-O-01535
	branchid = OAF-O-00103
	chainage = 61.138
	allowedFlowDir = both
	leftLevel = nan
	rightLevel = nan
	csDefId = KDU-O-01535
	length = 8.0
	inletLossCoeff = 0.7
	outletLossCoeff = 0.7
	valveOnOff = 0
	numLossCoeff = 0
	bedFrictionType = Strickler
	bedFriction = 70

[Structure]
	type = culvert
	id = KDU-O-01421
	branchid = OAF-O-00078
	chainage = 97.051
	allowedFlowDir = both
	leftLevel = -3.62
	rightLevel = -3.6
	csDefId = KDU-O-01421
	length = 10.0
	inletLossCoeff = 0.7
	outletLossCoeff = 0.7
	valveOnOff = 0
	numLossCoeff = 0
	bedFrictionType = Strickler
	bedFriction = 70

[Structure]
	type = culvert
	id = KDU-O-01431
	branchid = OAF-O-00091
	chainage = 765.088
	allowedFlowDir = both
	leftLevel = -3.41
	rightLevel = -3.3000000000000003
	csDefId = KDU-O-01431
	length = 12.0
	inletLossCoeff = 0.7
	outletLossCoeff = 0.7
	valveOnOff = 0
	numLossCoeff = 0
	bedFrictionType = Strickler
	bedFriction = 70

[Structure]
	type = culvert
	id = KDU-O-01437
	branchid = OAF-O-00897
	chainage = 358.253
	allowedFlowDir = both
	leftLevel = -3.36
	rightLevel = -3.24
	csDefId = KDU-O-01437
	length = 12.0
	inletLossCoeff = 0.7
	outletLossCoeff = 0.7
	valveOnOff = 0
	numLossCoeff = 0
	bedFrictionType = Strickler
	bedFriction = 70

[Structure]
	type = culvert
	id = KDU-O-00248
	branchid = OAF-O-00217
	chainage = 3.536
	allowedFlowDir = both
	leftLevel = nan
	rightLevel = nan
	csDefId = KDU-O-00248
	length = 7.0
	inletLossCoeff = 0.7
	outletLossCoeff = 0.7
	valveOnOff = 0
	numLossCoeff = 0
	bedFrictionType = Strickler
	bedFriction = 70

[Structure]
	type = culvert
	id = KDU-O-01522
	branchid = OAF-O-00098
	chainage = 345.123
	allowedFlowDir = both
	leftLevel = -2.74
	rightLevel = -3.12
	csDefId = KDU-O-01522
	length = 30.0
	inletLossCoeff = 0.7
	outletLossCoeff = 0.7
	valveOnOff = 0
	numLossCoeff = 0
	bedFrictionType = Strickler
	bedFriction = 70

[Structure]
	type = culvert
	id = KDU-O-01478
	branchid = OAF-O-00002
	chainage = 22.061
	allowedFlowDir = both
	leftLevel = -0.38
	rightLevel = -0.38
	csDefId = KDU-O-01478
	length = 15.0
	inletLossCoeff = 0.7
	outletLossCoeff = 0.7
	valveOnOff = 0
	numLossCoeff = 0
	bedFrictionType = Strickler
	bedFriction = 70

[Structure]
	type = culvert
	id = KDU-O-01480
	branchid = OAF-O-00080
	chainage = 31.621
	allowedFlowDir = both
	leftLevel = -0.53
	rightLevel = -0.53
	csDefId = KDU-O-01480
	length = 7.0
	inletLossCoeff = 0.7
	outletLossCoeff = 0.7
	valveOnOff = 0
	numLossCoeff = 0
	bedFrictionType = Strickler
	bedFriction = 70

[Structure]
	type = culvert
	id = KDU-O-01538
	branchid = OAF-O-00103
	chainage = 69.903
	allowedFlowDir = both
	leftLevel = -3.05
	rightLevel = -3.21
	csDefId = KDU-O-01538
	length = 19.0
	inletLossCoeff = 0.7
	outletLossCoeff = 0.7
	valveOnOff = 0
	numLossCoeff = 0
	bedFrictionType = Strickler
	bedFriction = 70

[Structure]
	type = culvert
	id = KDU-O-01543
	branchid = OAF-O-00107
	chainage = 343.075
	allowedFlowDir = both
	leftLevel = -3.98
	rightLevel = -3.93
	csDefId = KDU-O-01543
	length = 10.0
	inletLossCoeff = 0.7
	outletLossCoeff = 0.7
	valveOnOff = 0
	numLossCoeff = 0
	bedFrictionType = Strickler
	bedFriction = 70

[Structure]
	type = culvert
	id = KDU-O-02521
	branchid = OAF-O-01043
	chainage = 161.629
	allowedFlowDir = both
	leftLevel = -3.45
	rightLevel = -3.46
	csDefId = KDU-O-02521
	length = 18.0
	inletLossCoeff = 0.7
	outletLossCoeff = 0.7
	valveOnOff = 0
	numLossCoeff = 0
	bedFrictionType = Strickler
	bedFriction = 70

[Structure]
	type = culvert
	id = KDU-O-01458
	branchid = OAF-O-00085
	chainage = 277.783
	allowedFlowDir = both
	leftLevel = -3.88
	rightLevel = -3.9000000000000004
	csDefId = KDU-O-01458
	length = 20.0
	inletLossCoeff = 0.7
	outletLossCoeff = 0.7
	valveOnOff = 0
	numLossCoeff = 0
	bedFrictionType = Strickler
	bedFriction = 70

[Structure]
	type = culvert
	id = KDU-O-01513
	branchid = OAF-O-00093
	chainage = 464.067
	allowedFlowDir = both
	leftLevel = -3.81
	rightLevel = -3.95
	csDefId = KDU-O-01513
	length = 20.0
	inletLossCoeff = 0.7
	outletLossCoeff = 0.7
	valveOnOff = 0
	numLossCoeff = 0
	bedFrictionType = Strickler
	bedFriction = 70

[Structure]
	type = culvert
	id = KDU-O-01518
	branchid = OAF-O-00096
	chainage = 21.647
	allowedFlowDir = both
	leftLevel = -4.19
	rightLevel = -4.28
	csDefId = KDU-O-01518
	length = 20.0
	inletLossCoeff = 0.7
	outletLossCoeff = 0.7
	valveOnOff = 0
	numLossCoeff = 0
	bedFrictionType = Strickler
	bedFriction = 70

[Structure]
	type = culvert
	id = KDU-O-00249
	branchid = OAF-O-00217
	chainage = 185.852
	allowedFlowDir = both
	leftLevel = nan
	rightLevel = -2.32
	csDefId = KDU-O-00249
	length = 20.0
	inletLossCoeff = 0.7
	outletLossCoeff = 0.7
	valveOnOff = 0
	numLossCoeff = 0
	bedFrictionType = Strickler
	bedFriction = 70

[Structure]
	type = culvert
	id = KDU-O-01541
	branchid = OAF-O-00107
	chainage = 121.174
	allowedFlowDir = both
	leftLevel = -4.17
	rightLevel = -3.9000000000000004
	csDefId = KDU-O-01541
	length = 10.0
	inletLossCoeff = 0.7
	outletLossCoeff = 0.7
	valveOnOff = 0
	numLossCoeff = 0
	bedFrictionType = Strickler
	bedFriction = 70

[Structure]
	type = culvert
	id = KSY-O-00011
	branchid = OAF-O-00162
	chainage = 21.064
	allowedFlowDir = both
	leftLevel = -4.53
	rightLevel = -4.58
	csDefId = KSY-O-00011
	length = 44.0
	inletLossCoeff = 0.7
	outletLossCoeff = 0.7
	valveOnOff = 0
	numLossCoeff = 0
	bedFrictionType = Strickler
	bedFriction = 70

[Structure]
	type = culvert
	id = KSY-O-00006
	branchid = OAF-O-00058
	chainage = 31.564
	allowedFlowDir = both
	leftLevel = nan
	rightLevel = nan
	csDefId = KSY-O-00006
	length = 60.0
	inletLossCoeff = 0.7
	outletLossCoeff = 0.7
	valveOnOff = 0
	numLossCoeff = 0
	bedFrictionType = Strickler
	bedFriction = 70

[Structure]
	type = weir
	id = KST-O-17700
	branchid = OAF-O-00815
	chainage = 0.1
	allowedFlowDir = both
	crestLevel = -2.94
	crestWidth = 0.8
	corrCoeff = 1
	useVelocityHeight = true

[Structure]
	type = weir
	id = KST-O-17800
	branchid = OAF-O-00901
	chainage = 0.1
	allowedFlowDir = both
	crestLevel = -3.22
	crestWidth = 0.85
	corrCoeff = 1
	useVelocityHeight = true

[Structure]
	type = weir
	id = KST-O-17680
	branchid = OAF-O-00078
	chainage = 0.1
	allowedFlowDir = both
	crestLevel = -2.24
	crestWidth = 2.3
	corrCoeff = 1
	useVelocityHeight = true

[Structure]
	type = weir
	id = KST-O-17685
	branchid = OAF-O-01042
	chainage = 142.12916575236667
	allowedFlowDir = both
	crestLevel = -1.33
	crestWidth = 2.0
	corrCoeff = 1
	useVelocityHeight = true

[Structure]
	type = weir
	id = KST-O-17690
	branchid = OAF-O-00084
	chainage = 0.1
	allowedFlowDir = both
	crestLevel = -2.47
	crestWidth = 0.7
	corrCoeff = 1
	useVelocityHeight = true

[Structure]
	type = weir
	id = KST-O-17750
	branchid = OAF-O-00111
	chainage = 1152.5191855282408
	allowedFlowDir = both
	crestLevel = -4.49
	crestWidth = 5.0
	corrCoeff = 1
	useVelocityHeight = true

[Structure]
	type = weir
	id = KST-O-17755
	branchid = OAF-O-00113
	chainage = 50.39646125523982
	allowedFlowDir = both
	crestLevel = -1.46
	crestWidth = 0.2
	corrCoeff = 1
	useVelocityHeight = true

[Structure]
	type = weir
	id = KST-O-17760
	branchid = OAF-O-01030
	chainage = 187.51089974359016
	allowedFlowDir = both
	crestLevel = -2.74
	crestWidth = 0.7
	corrCoeff = 1
	useVelocityHeight = true

[Structure]
	type = weir
	id = KST-O-17710
	branchid = OAF-O-01043
	chainage = 0.1
	allowedFlowDir = both
	crestLevel = -3.11
	crestWidth = 0.9
	corrCoeff = 1
	useVelocityHeight = true

[Structure]
	type = weir
	id = KST-O-17730
	branchid = OAF-O-00102
	chainage = 271.09161153231963
	allowedFlowDir = both
	crestLevel = -1.93
	crestWidth = 0.75
	corrCoeff = 1
	useVelocityHeight = true

[Structure]
	type = weir
	id = KST-O-17740
	branchid = OAF-O-00106
	chainage = 0.1
	allowedFlowDir = both
	crestLevel = -2.13
	crestWidth = 0.65
	corrCoeff = 1
	useVelocityHeight = true

[Structure]
	type = weir
	id = KST-O-17660
	branchid = OAF-O-02385
	chainage = 5.2108816975012555
	allowedFlowDir = both
	crestLevel = -2.03
	crestWidth = 1.3
	corrCoeff = 1
	useVelocityHeight = true

[Structure]
	type = weir
	id = KST-O-17670
	branchid = OAF-O-00899
	chainage = 118.44161410840489
	allowedFlowDir = both
	crestLevel = -0.45
	crestWidth = 0.75
	corrCoeff = 1
	useVelocityHeight = true

[Structure]
	type = weir
	id = KST-O-17770
	branchid = OAF-O-00123
	chainage = 628.0131054523089
	allowedFlowDir = both
	crestLevel = -2.76
	crestWidth = 0.75
	corrCoeff = 1
	useVelocityHeight = true

[Structure]
	type = weir
	id = KST-O-17780
	branchid = OAF-O-00127
	chainage = 604.2865680088393
	allowedFlowDir = both
	crestLevel = -3.94
	crestWidth = 3.0
	corrCoeff = 1
	useVelocityHeight = true

[Structure]
	type = weir
	id = KST-O-17820
	branchid = OAF-O-00152
	chainage = 1006.2935814740869
	allowedFlowDir = both
	crestLevel = nan
	crestWidth = 1.0
	corrCoeff = 1
	useVelocityHeight = true

[Structure]
	type = weir
	id = KST-O-17650
	branchid = OAF-O-00056
	chainage = 0.1
	allowedFlowDir = both
	crestLevel = -1.4
	crestWidth = 0.9
	corrCoeff = 1
	useVelocityHeight = true

[Structure]
	type = weir
	id = KST-O-17790
	branchid = OAF-O-00954
	chainage = 37.2451872464378
	allowedFlowDir = both
	crestLevel = -3.47
	crestWidth = 1.8
	corrCoeff = 1
	useVelocityHeight = true

[Structure]
	type = weir
	id = KST-O-17810
	branchid = OAF-O-00149
	chainage = 595.6088544530884
	allowedFlowDir = both
	crestLevel = -2.81
	crestWidth = 0.7
	corrCoeff = 1
	useVelocityHeight = true

[Structure]
	type = bridge
	id = KBR-O-00006
	branchid = OAF-O-00142
	chainage = 42.414
	allowedFlowDir = both
	csDefId = PRO_KBR-O-00006
	bedLevel = -4.6
	inletLossCoeff = 0.7
	outletLossCoeff = 0.7
	frictionType = Strickler
	friction = 70
	length = 8.0

[Structure]
	type = bridge
	id = KBR-O-00012
	branchid = OAF-O-00997
	chainage = 187.281
	allowedFlowDir = both
	csDefId = PRO_KBR-O-00012
	bedLevel = -4.225
	inletLossCoeff = 0.7
	outletLossCoeff = 0.7
	frictionType = Strickler
	friction = 70
	length = 6.0

[Structure]
	type = bridge
	id = KBR-O-00014
	branchid = OAF-O-00112
	chainage = 40.883
	allowedFlowDir = both
	csDefId = PRO_KBR-O-00014
	bedLevel = nan
	inletLossCoeff = 0.7
	outletLossCoeff = 0.7
	frictionType = Strickler
	friction = 70
	length = 5.7

[Structure]
	type = bridge
	id = KBR-O-00041
	branchid = OAF-O-00109
	chainage = 791.172
	allowedFlowDir = both
	csDefId = PRO_KBR-O-00041
	bedLevel = nan
	inletLossCoeff = 0.7
	outletLossCoeff = 0.7
	frictionType = Strickler
	friction = 70
	length = 8.5

[Structure]
	type = bridge
	id = KBR-O-00067
	branchid = OAF-O-00893
	chainage = 95.22
	allowedFlowDir = both
	csDefId = PRO_KBR-O-00067
	bedLevel = nan
	inletLossCoeff = 0.7
	outletLossCoeff = 0.7
	frictionType = Strickler
	friction = 70
	length = nan

[Structure]
	type = bridge
	id = KBR-O-00072
	branchid = OAF-O-00900
	chainage = 1303.844
	allowedFlowDir = both
	csDefId = PRO_KBR-O-00072
	bedLevel = nan
	inletLossCoeff = 0.7
	outletLossCoeff = 0.7
	frictionType = Strickler
	friction = 70
	length = 5.0

[Structure]
	type = bridge
	id = KBR-O-00094
	branchid = OAF-O-00950
	chainage = 107.754
	allowedFlowDir = both
	csDefId = PRO_KBR-O-00094
	bedLevel = nan
	inletLossCoeff = 0.7
	outletLossCoeff = 0.7
	frictionType = Strickler
	friction = 70
	length = nan

[Structure]
	type = pump
	id = PMP_KGM-O-11860
	branchid = OAF-O-00782
	chainage = 356.85594931273766
	orientation = positive
	numstages = 1
	controlSide = suctionSide
	capacity = 0.21666666666666667
	startlevelSuctionSide = -998.95
	stoplevelSuctionSide = -999.05

[Structure]
	type = pump
	id = PMP_KGM-O-11730
	branchid = OAF-O-02479
	chainage = 11.899885760144961
	orientation = positive
	numstages = 1
	controlSide = suctionSide
	capacity = 5.333333333333333
	startlevelSuctionSide = -998.95
	stoplevelSuctionSide = -999.05

